/*---------------------------------------------------------------------------*\
  =========                 |
  \\      /  F ield         | OpenFOAM: The Open Source CFD Toolbox
   \\    /   O peration     | Website:  https://openfoam.org
    \\  /    A nd           | Version:  10
     \\/     M anipulation  |
\*---------------------------------------------------------------------------*/
Build  : 10-c4cf895ad8fa
Exec   : potentialFoam -parallel
Date   : May 06 2023
Time   : 14:26:55
Host   : "UU112388"
PID    : 14610
I/O    : uncollated
Case   : /home/saeb/OpenFoam/Wind_Dune_profile_cyc_snappyHexMesh_3_14April2023/run_angle89
nProcs : 6
Slaves : 
5
(
"UU112388.14611"
"UU112388.14612"
"UU112388.14613"
"UU112388.14614"
"UU112388.14615"
)

Pstream initialised with:
    floatTransfer      : 0
    nProcsSimpleSum    : 0
    commsType          : nonBlocking
    polling iterations : 0
sigFpe : Enabling floating point exception trapping (FOAM_SIGFPE).
fileModificationChecking : Monitoring run-time modified files using timeStampMaster (fileModificationSkew 10)
allowSystemOperations : Allowing user-supplied system call operations

// * * * * * * * * * * * * * * * * * * * * * * * * * * * * * * * * * * * * * //
Create time

Create mesh for time = 0

Reading velocity field U

Using #codeStream at line 72 in file "/home/saeb/OpenFoam/Wind_Dune_profile_cyc_snappyHexMesh_3_14April2023/run_angle89/processor0/0/U/boundaryField/inlet"
[4] codeStream : dictionary:"/home/saeb/OpenFoam/Wind_Dune_profile_cyc_snappyHexMesh_3_14April2023/run_angle89/processor4/0/U/boundaryField/inlet" master-only-reading:0
[5] codeStream : dictionary:"/home/saeb/OpenFoam/Wind_Dune_profile_cyc_snappyHexMesh_3_14April2023/run_angle89/processor5/0/U/boundaryField/inlet" master-only-reading:0
Using #codeStream with "/home/saeb/OpenFoam/Wind_Dune_profile_cyc_snappyHexMesh_3_14April2023/run_angle89/dynamicCode/platforms/linux64GccDPInt32Opt/lib/libcodeStream_b98ded06498a9fbb0f5e8d8afebf42dc066cba6f.so"
Creating new library in "dynamicCode/_b98ded06498a9fbb0f5e8d8afebf42dc066cba6f/platforms/linux64GccDPInt32Opt/lib/libcodeStream_b98ded06498a9fbb0f5e8d8afebf42dc066cba6f.so"
[2] codeStream : dictionary:"/home/saeb/OpenFoam/Wind_Dune_profile_cyc_snappyHexMesh_3_14April2023/run_angle89/processor2/0/U/boundaryField/inlet" master-only-reading:0
[3] codeStream : dictionary:"/home/saeb/OpenFoam/Wind_Dune_profile_cyc_snappyHexMesh_3_14April2023/run_angle89/processor3/0/U/boundaryField/inlet" master-only-reading:0
[1] codeStream : dictionary:"/home/saeb/OpenFoam/Wind_Dune_profile_cyc_snappyHexMesh_3_14April2023/run_angle89/processor1/0/U/boundaryField/inlet" master-only-reading:0
"/opt/openfoam10/etc/codeTemplates/dynamicCode/codeStreamTemplate.C" "/home/saeb/OpenFoam/Wind_Dune_profile_cyc_snappyHexMesh_3_14April2023/run_angle89/dynamicCode/_b98ded06498a9fbb0f5e8d8afebf42dc066cba6f/codeStreamTemplate.C"
Invoking "wmake -s libso /home/saeb/OpenFoam/Wind_Dune_profile_cyc_snappyHexMesh_3_14April2023/run_angle89/dynamicCode/_b98ded06498a9fbb0f5e8d8afebf42dc066cba6f"
wmake libso /home/saeb/OpenFoam/Wind_Dune_profile_cyc_snappyHexMesh_3_14April2023/run_angle89/dynamicCode/_b98ded06498a9fbb0f5e8d8afebf42dc066cba6f
    ln: ./lnInclude
    wmkdep: codeStreamTemplate.C
    Ctoo: codeStreamTemplate.C
    ld: /home/saeb/OpenFoam/Wind_Dune_profile_cyc_snappyHexMesh_3_14April2023/run_angle89/dynamicCode/_b98ded06498a9fbb0f5e8d8afebf42dc066cba6f/../platforms/linux64GccDPInt32Opt/lib/libcodeStream_b98ded06498a9fbb0f5e8d8afebf42dc066cba6f.so
[4] 
[0] codeStream : dictionary:"/home/saeb/OpenFoam/Wind_Dune_profile_cyc_snappyHexMesh_3_14April2023/run_angle89/processor0/0/U/boundaryField/inlet" master-only-reading:0
[0] 
[0] on processor 0 have masterSize:759936 and localSize:759936
[0] 
[0] on processor 0 after waiting: have masterSize:759936 and localSize:759936
[1] 
[1] on processor 1 have masterSize:759936 and localSize:-1
[2] 
[2] on processor 2 have masterSize:759936 and localSize:-1
[5] 
[5] on processor 5 have masterSize:759936 and localSize:-1
[4] on processor 4 have masterSize:759936 and localSize:-1
[3] 
[3] on processor 3 have masterSize:759936 and localSize:-1
[4] Local file "/home/saeb/OpenFoam/Wind_Dune_profile_cyc_snappyHexMesh_3_14April2023/run_angle89/dynamicCode/platforms/linux64GccDPInt32Opt/lib/libcodeStream_b98ded06498a9fbb0f5e8d8afebf42dc066cba6f.so" not of same size (-1) as master (759936). Waiting for 10 seconds.
[1] Local file "/home/saeb/OpenFoam/Wind_Dune_profile_cyc_snappyHexMesh_3_14April2023/run_angle89/dynamicCode/platforms/linux64GccDPInt32Opt/lib/libcodeStream_b98ded06498a9fbb0f5e8d8afebf42dc066cba6f.so" not of same size (-1) as master (759936). Waiting for 10 seconds.
[2] Local file "/home/saeb/OpenFoam/Wind_Dune_profile_cyc_snappyHexMesh_3_14April2023/run_angle89/dynamicCode/platforms/linux64GccDPInt32Opt/lib/libcodeStream_b98ded06498a9fbb0f5e8d8afebf42dc066cba6f.so" not of same size (-1) as master (759936). Waiting for 10 seconds.
[5] Local file "/home/saeb/OpenFoam/Wind_Dune_profile_cyc_snappyHexMesh_3_14April2023/run_angle89/dynamicCode/platforms/linux64GccDPInt32Opt/lib/libcodeStream_b98ded06498a9fbb0f5e8d8afebf42dc066cba6f.so" not of same size (-1) as master (759936). Waiting for 10 seconds.
[3] Local file "/home/saeb/OpenFoam/Wind_Dune_profile_cyc_snappyHexMesh_3_14April2023/run_angle89/dynamicCode/platforms/linux64GccDPInt32Opt/lib/libcodeStream_b98ded06498a9fbb0f5e8d8afebf42dc066cba6f.so" not of same size (-1) as master (759936). Waiting for 10 seconds.
[0] Opening cached dictionary:"/home/saeb/OpenFoam/Wind_Dune_profile_cyc_snappyHexMesh_3_14April2023/run_angle89/dynamicCode/platforms/linux64GccDPInt32Opt/lib/libcodeStream_b98ded06498a9fbb0f5e8d8afebf42dc066cba6f.so"
[0] codeStream : dictionary:"/home/saeb/OpenFoam/Wind_Dune_profile_cyc_snappyHexMesh_3_14April2023/run_angle89/processor0/0/U/boundaryField/inlet" master-only-reading:0
[5] 
[5] on processor 5 after waiting: have masterSize:759936 and localSize:759936
[5] Opening cached dictionary:"/home/saeb/OpenFoam/Wind_Dune_profile_cyc_snappyHexMesh_3_14April2023/run_angle89/dynamicCode/platforms/linux64GccDPInt32Opt/lib/libcodeStream_b98ded06498a9fbb0f5e8d8afebf42dc066cba6f.so"
[5] codeStream : dictionary:"/home/saeb/OpenFoam/Wind_Dune_profile_cyc_snappyHexMesh_3_14April2023/run_angle89/processor5/0/U/boundaryField/inlet" master-only-reading:0
[4] 
[4] on processor 4 after waiting: have masterSize:759936 and localSize:759936
[4] Opening cached dictionary:"/home/saeb/OpenFoam/Wind_Dune_profile_cyc_snappyHexMesh_3_14April2023/run_angle89/dynamicCode/platforms/linux64GccDPInt32Opt/lib/libcodeStream_b98ded06498a9fbb0f5e8d8afebf42dc066cba6f.so"
[4] codeStream : dictionary:"/home/saeb/OpenFoam/Wind_Dune_profile_cyc_snappyHexMesh_3_14April2023/run_angle89/processor4/0/U/boundaryField/inlet" master-only-reading:0
[1] 
[1] on processor 1 after waiting: have masterSize:759936 and localSize:759936
[1] Opening cached dictionary:"/home/saeb/OpenFoam/Wind_Dune_profile_cyc_snappyHexMesh_3_14April2023/run_angle89/dynamicCode/platforms/linux64GccDPInt32Opt/lib/libcodeStream_b98ded06498a9fbb0f5e8d8afebf42dc066cba6f.so"
[1] codeStream : dictionary:"/home/saeb/OpenFoam/Wind_Dune_profile_cyc_snappyHexMesh_3_14April2023/run_angle89/processor1/0/U/boundaryField/inlet" master-only-reading:0
[2] 
[2] on processor 2 after waiting: have masterSize:759936 and localSize:759936
[2] Opening cached dictionary:"/home/saeb/OpenFoam/Wind_Dune_profile_cyc_snappyHexMesh_3_14April2023/run_angle89/dynamicCode/platforms/linux64GccDPInt32Opt/lib/libcodeStream_b98ded06498a9fbb0f5e8d8afebf42dc066cba6f.so"
[2] codeStream : dictionary:"/home/saeb/OpenFoam/Wind_Dune_profile_cyc_snappyHexMesh_3_14April2023/run_angle89/processor2/0/U/boundaryField/inlet" master-only-reading:0
[3] 
[3] on processor 3 after waiting: have masterSize:759936 and localSize:759936
[3] Opening cached dictionary:"/home/saeb/OpenFoam/Wind_Dune_profile_cyc_snappyHexMesh_3_14April2023/run_angle89/dynamicCode/platforms/linux64GccDPInt32Opt/lib/libcodeStream_b98ded06498a9fbb0f5e8d8afebf42dc066cba6f.so"
[3] codeStream : dictionary:"/home/saeb/OpenFoam/Wind_Dune_profile_cyc_snappyHexMesh_3_14April2023/run_angle89/processor3/0/U/boundaryField/inlet" master-only-reading:0
Constructing pressure field p

Constructing velocity potential field Phi

No MRF models present


Calculating potential flow
GAMG:  Solving for Phi, Initial residual = 1, Final residual = 0.00601687, No Iterations 7
GAMG:  Solving for Phi, Initial residual = 0.236899, Final residual = 0.00190593, No Iterations 5
GAMG:  Solving for Phi, Initial residual = 0.0235834, Final residual = 0.000187174, No Iterations 7
GAMG:  Solving for Phi, Initial residual = 0.00361361, Final residual = 3.20593e-05, No Iterations 7
GAMG:  Solving for Phi, Initial residual = 0.000555667, Final residual = 4.76795e-06, No Iterations 8
GAMG:  Solving for Phi, Initial residual = 9.11146e-05, Final residual = 8.97679e-07, No Iterations 8
GAMG:  Solving for Phi, Initial residual = 1.65198e-05, Final residual = 1.44795e-07, No Iterations 9
GAMG:  Solving for Phi, Initial residual = 2.99901e-06, Final residual = 8.70091e-08, No Iterations 4
GAMG:  Solving for Phi, Initial residual = 5.66901e-07, Final residual = 9.92171e-08, No Iterations 1
GAMG:  Solving for Phi, Initial residual = 1.59097e-07, Final residual = 6.97118e-08, No Iterations 1
GAMG:  Solving for Phi, Initial residual = 9.87037e-08, Final residual = 9.87037e-08, No Iterations 0
Continuity error = 1.26634e-08
Interpolated velocity error = 0.000265503
ExecutionTime = 10.1249 s  ClockTime = 13 s

End

Finalising parallel run
