/*---------------------------------------------------------------------------*\
  =========                 |
  \\      /  F ield         | OpenFOAM: The Open Source CFD Toolbox
   \\    /   O peration     | Website:  https://openfoam.org
    \\  /    A nd           | Version:  10
     \\/     M anipulation  |
\*---------------------------------------------------------------------------*/
Build  : 10-c4cf895ad8fa
Exec   : simpleFoam -parallel
Date   : May 06 2023
Time   : 14:27:08
Host   : "UU112388"
PID    : 14822
I/O    : uncollated
Case   : /home/saeb/OpenFoam/Wind_Dune_profile_cyc_snappyHexMesh_3_14April2023/run_angle89
nProcs : 6
Slaves : 
5
(
"UU112388.14823"
"UU112388.14824"
"UU112388.14825"
"UU112388.14826"
"UU112388.14827"
)

Pstream initialised with:
    floatTransfer      : 0
    nProcsSimpleSum    : 0
    commsType          : nonBlocking
    polling iterations : 0
sigFpe : Enabling floating point exception trapping (FOAM_SIGFPE).
fileModificationChecking : Monitoring run-time modified files using timeStampMaster (fileModificationSkew 10)
allowSystemOperations : Allowing user-supplied system call operations

// * * * * * * * * * * * * * * * * * * * * * * * * * * * * * * * * * * * * * //
Create time

Create mesh for time = 0


SIMPLE: No convergence criteria found

Reading field p

Reading field U

Reading/calculating face flux field phi

Selecting viscosity model constant
Selecting turbulence model type RAS
Selecting RAS turbulence model kOmegaSST
[1] codeStream : dictionary:"/home/saeb/OpenFoam/Wind_Dune_profile_cyc_snappyHexMesh_3_14April2023/run_angle89/processor1/0/nut/boundaryField/ground" master-only-reading:0
[2] codeStream : dictionary:"/home/saeb/OpenFoam/Wind_Dune_profile_cyc_snappyHexMesh_3_14April2023/run_angle89/processor2/0/nut/boundaryField/ground" master-only-reading:0
[3] codeStream : dictionary:"/home/saeb/OpenFoam/Wind_Dune_profile_cyc_snappyHexMesh_3_14April2023/run_angle89/processor3/0/nut/boundaryField/ground" master-only-reading:0
[4] codeStream : dictionary:"/home/saeb/OpenFoam/Wind_Dune_profile_cyc_snappyHexMesh_3_14April2023/run_angle89/processor4/0/nut/boundaryField/ground" master-only-reading:0
[5] codeStream : dictionary:"/home/saeb/OpenFoam/Wind_Dune_profile_cyc_snappyHexMesh_3_14April2023/run_angle89/processor5/0/nut/boundaryField/ground" master-only-reading:0
Using #codeStream at line 70 in file "/home/saeb/OpenFoam/Wind_Dune_profile_cyc_snappyHexMesh_3_14April2023/run_angle89/processor0/0/nut/boundaryField/ground"
Using #codeStream with "/home/saeb/OpenFoam/Wind_Dune_profile_cyc_snappyHexMesh_3_14April2023/run_angle89/dynamicCode/platforms/linux64GccDPInt32Opt/lib/libcodeStream_7a5ab755e5cf7d63d56230bfe3db72fd4e37b5fc.so"
Creating new library in "dynamicCode/_7a5ab755e5cf7d63d56230bfe3db72fd4e37b5fc/platforms/linux64GccDPInt32Opt/lib/libcodeStream_7a5ab755e5cf7d63d56230bfe3db72fd4e37b5fc.so"
"/opt/openfoam10/etc/codeTemplates/dynamicCode/codeStreamTemplate.C" "/home/saeb/OpenFoam/Wind_Dune_profile_cyc_snappyHexMesh_3_14April2023/run_angle89/dynamicCode/_7a5ab755e5cf7d63d56230bfe3db72fd4e37b5fc/codeStreamTemplate.C"
Invoking "wmake -s libso /home/saeb/OpenFoam/Wind_Dune_profile_cyc_snappyHexMesh_3_14April2023/run_angle89/dynamicCode/_7a5ab755e5cf7d63d56230bfe3db72fd4e37b5fc"
wmake libso /home/saeb/OpenFoam/Wind_Dune_profile_cyc_snappyHexMesh_3_14April2023/run_angle89/dynamicCode/_7a5ab755e5cf7d63d56230bfe3db72fd4e37b5fc
    ln: ./lnInclude
    wmkdep: codeStreamTemplate.C
    Ctoo: codeStreamTemplate.C
    ld: /home/saeb/OpenFoam/Wind_Dune_profile_cyc_snappyHexMesh_3_14April2023/run_angle89/dynamicCode/_7a5ab755e5cf7d63d56230bfe3db72fd4e37b5fc/../platforms/linux64GccDPInt32Opt/lib/libcodeStream_7a5ab755e5cf7d63d56230bfe3db72fd4e37b5fc.so
[4] 
[4] on processor 4 have masterSize:759368 and localSize:-1
[4] Local file "/home/saeb/OpenFoam/Wind_Dune_profile_cyc_snappyHexMesh_3_14April2023/run_angle89/dynamicCode/platforms/linux64GccDPInt32Opt/lib/libcodeStream_7a5ab755e5cf7d63d56230bfe3db72fd4e37b5fc.so" not of same size (-1) as master (759368). Waiting for 10 seconds.
[0] codeStream : dictionary:"/home/saeb/OpenFoam/Wind_Dune_profile_cyc_snappyHexMesh_3_14April2023/run_angle89/processor0/0/nut/boundaryField/ground" master-only-reading:0
[0] 
[0] on processor 0 have masterSize:759368 and localSize:759368
[0] 
[0] on processor 0 after waiting: have masterSize:759368 and localSize:759368
[5] 
[5] on processor 5 have masterSize:759368 and localSize:-1
[5] Local file "/home/saeb/OpenFoam/Wind_Dune_profile_cyc_snappyHexMesh_3_14April2023/run_angle89/dynamicCode/platforms/linux64GccDPInt32Opt/lib/libcodeStream_7a5ab755e5cf7d63d56230bfe3db72fd4e37b5fc.so" not of same size (-1) as master (759368). Waiting for 10 seconds.
[1] 
[1] on processor 1 have masterSize:759368 and localSize:-1
[1] Local file "/home/saeb/OpenFoam/Wind_Dune_profile_cyc_snappyHexMesh_3_14April2023/run_angle89/dynamicCode/platforms/linux64GccDPInt32Opt/lib/libcodeStream_7a5ab755e5cf7d63d56230bfe3db72fd4e37b5fc.so" not of same size (-1) as master (759368). Waiting for 10 seconds.
[2] 
[2] on processor 2 have masterSize:759368 and localSize:-1
[2] Local file "/home/saeb/OpenFoam/Wind_Dune_profile_cyc_snappyHexMesh_3_14April2023/run_angle89/dynamicCode/platforms/linux64GccDPInt32Opt/lib/libcodeStream_7a5ab755e5cf7d63d56230bfe3db72fd4e37b5fc.so" not of same size (-1) as master (759368). Waiting for 10 seconds.
[3] 
[3] on processor 3 have masterSize:759368 and localSize:-1
[3] Local file "/home/saeb/OpenFoam/Wind_Dune_profile_cyc_snappyHexMesh_3_14April2023/run_angle89/dynamicCode/platforms/linux64GccDPInt32Opt/lib/libcodeStream_7a5ab755e5cf7d63d56230bfe3db72fd4e37b5fc.so" not of same size (-1) as master (759368). Waiting for 10 seconds.
[0] Opening cached dictionary:"/home/saeb/OpenFoam/Wind_Dune_profile_cyc_snappyHexMesh_3_14April2023/run_angle89/dynamicCode/platforms/linux64GccDPInt32Opt/lib/libcodeStream_7a5ab755e5cf7d63d56230bfe3db72fd4e37b5fc.so"
[0] codeStream : dictionary:"/home/saeb/OpenFoam/Wind_Dune_profile_cyc_snappyHexMesh_3_14April2023/run_angle89/processor0/0/nut/boundaryField/ground" master-only-reading:0
[5] 
[5] on processor 5 after waiting: have masterSize:759368 and localSize:759368
[1] 
[1] on processor 1 after waiting: have masterSize:759368 and localSize:759368
[1] Opening cached dictionary:"/home/saeb/OpenFoam/Wind_Dune_profile_cyc_snappyHexMesh_3_14April2023/run_angle89/dynamicCode/platforms/linux64GccDPInt32Opt/lib/libcodeStream_7a5ab755e5cf7d63d56230bfe3db72fd4e37b5fc.so"
[1] codeStream : dictionary:"/home/saeb/OpenFoam/Wind_Dune_profile_cyc_snappyHexMesh_3_14April2023/run_angle89/processor1/0/nut/boundaryField/ground" master-only-reading:0
[4] 
[4] on processor 4 after waiting: have masterSize:759368 and localSize:759368
[4] Opening cached dictionary:"/home/saeb/OpenFoam/Wind_Dune_profile_cyc_snappyHexMesh_3_14April2023/run_angle89/dynamicCode/platforms/linux64GccDPInt32Opt/lib/libcodeStream_7a5ab755e5cf7d63d56230bfe3db72fd4e37b5fc.so"
[4] codeStream : dictionary:"/home/saeb/OpenFoam/Wind_Dune_profile_cyc_snappyHexMesh_3_14April2023/run_angle89/processor4/0/nut/boundaryField/ground" master-only-reading:0
[3] 
[3] on processor 3 after waiting: have masterSize:759368 and localSize:759368
[3] Opening cached dictionary:"/home/saeb/OpenFoam/Wind_Dune_profile_cyc_snappyHexMesh_3_14April2023/run_angle89/dynamicCode/platforms/linux64GccDPInt32Opt/lib/libcodeStream_7a5ab755e5cf7d63d56230bfe3db72fd4e37b5fc.so"
[3] codeStream : dictionary:"/home/saeb/OpenFoam/Wind_Dune_profile_cyc_snappyHexMesh_3_14April2023/run_angle89/processor3/0/nut/boundaryField/ground" master-only-reading:0
[2] 
[2] on processor 2 after waiting: have masterSize:759368 and localSize:759368
[5] Opening cached dictionary:"/home/saeb/OpenFoam/Wind_Dune_profile_cyc_snappyHexMesh_3_14April2023/run_angle89/dynamicCode/platforms/linux64GccDPInt32Opt/lib/libcodeStream_7a5ab755e5cf7d63d56230bfe3db72fd4e37b5fc.so"
[5] codeStream : dictionary:"/home/saeb/OpenFoam/Wind_Dune_profile_cyc_snappyHexMesh_3_14April2023/run_angle89/processor5/0/nut/boundaryField/ground" master-only-reading:0
[2] Opening cached dictionary:"/home/saeb/OpenFoam/Wind_Dune_profile_cyc_snappyHexMesh_3_14April2023/run_angle89/dynamicCode/platforms/linux64GccDPInt32Opt/lib/libcodeStream_7a5ab755e5cf7d63d56230bfe3db72fd4e37b5fc.so"
[2] codeStream : dictionary:"/home/saeb/OpenFoam/Wind_Dune_profile_cyc_snappyHexMesh_3_14April2023/run_angle89/processor2/0/nut/boundaryField/ground" master-only-reading:0
Selecting patchDistMethod meshWave
RAS
{
    model           kOmegaSST;
    turbulence      on;
    printCoeffs     on;
    alphaK1         0.85;
    alphaK2         1;
    alphaOmega1     0.5;
    alphaOmega2     0.856;
    gamma1          0.555556;
    gamma2          0.44;
    beta1           0.075;
    beta2           0.0828;
    betaStar        0.09;
    a1              0.31;
    b1              1;
    c1              10;
    F3              false;
}

No MRF models present

No fvModels present
No fvConstraints present

Starting time loop

streamlines streamlines:
    automatic track length specified through number of sub cycles : 5

Reading surface description:
    yNormal

forces forceCoeffs1:
--> FOAM Warning : 
    From function Foam::labelHashSet Foam::polyBoundaryMesh::patchSet(const Foam::UList<Foam::wordRe>&, bool, bool) const
    in file meshes/polyMesh/polyBoundaryMesh/polyBoundaryMesh.C at line 834
    Cannot find any patch or group names matching motorBikeGroup
    Not including porosity effects
forceCoeffs forceCoeffs1:
--> FOAM Warning : 
    From function Foam::labelHashSet Foam::polyBoundaryMesh::patchSet(const Foam::UList<Foam::wordRe>&, bool, bool) const
    in file meshes/polyMesh/polyBoundaryMesh/polyBoundaryMesh.C at line 834
    Cannot find any patch or group names matching motorBikeGroup
    Not including porosity effects
streamlines streamlines write:
    Seeded 20 particles
    Sampled 4740 locations
forceCoeffs forceCoeffs1 write:
    Cm    = 0
    Cd    = 0
    Cl    = 0
    Cl(f) = 0
    Cl(r) = 0

Time = 1s

smoothSolver:  Solving for Ux, Initial residual = 0.675002, Final residual = 0.0484926, No Iterations 5
smoothSolver:  Solving for Uy, Initial residual = 0.712519, Final residual = 0.0469744, No Iterations 4
smoothSolver:  Solving for Uz, Initial residual = 0.999823, Final residual = 0.0720084, No Iterations 5
GAMG:  Solving for p, Initial residual = 1, Final residual = 0.00580669, No Iterations 6
time step continuity errors : sum local = 3.40335e-05, global = -6.74041e-06, cumulative = -6.74041e-06
smoothSolver:  Solving for omega, Initial residual = 0.0631436, Final residual = 0.00485658, No Iterations 1
smoothSolver:  Solving for k, Initial residual = 1, Final residual = 0.0771844, No Iterations 1
ExecutionTime = 10.2278 s  ClockTime = 13 s

forceCoeffs forceCoeffs1 write:
    Cm    = 0
    Cd    = 0
    Cl    = 0
    Cl(f) = 0
    Cl(r) = 0

Time = 2s

smoothSolver:  Solving for Ux, Initial residual = 0.221719, Final residual = 0.0198554, No Iterations 4
smoothSolver:  Solving for Uy, Initial residual = 0.497782, Final residual = 0.034344, No Iterations 4
smoothSolver:  Solving for Uz, Initial residual = 0.0337005, Final residual = 0.00279495, No Iterations 3
GAMG:  Solving for p, Initial residual = 0.283562, Final residual = 0.00258906, No Iterations 6
time step continuity errors : sum local = 4.52584e-05, global = 5.15701e-06, cumulative = -1.5834e-06
smoothSolver:  Solving for omega, Initial residual = 0.0361155, Final residual = 0.00248661, No Iterations 1
smoothSolver:  Solving for k, Initial residual = 0.410652, Final residual = 0.0303514, No Iterations 1
ExecutionTime = 10.2524 s  ClockTime = 13 s

forceCoeffs forceCoeffs1 write:
    Cm    = 0
    Cd    = 0
    Cl    = 0
    Cl(f) = 0
    Cl(r) = 0

Time = 3s

smoothSolver:  Solving for Ux, Initial residual = 0.118249, Final residual = 0.00869599, No Iterations 5
smoothSolver:  Solving for Uy, Initial residual = 0.36978, Final residual = 0.0256543, No Iterations 4
smoothSolver:  Solving for Uz, Initial residual = 0.0293084, Final residual = 0.00254365, No Iterations 3
GAMG:  Solving for p, Initial residual = 0.093731, Final residual = 0.00082129, No Iterations 6
time step continuity errors : sum local = 3.41769e-05, global = 2.48345e-06, cumulative = 9.00053e-07
smoothSolver:  Solving for omega, Initial residual = 0.029641, Final residual = 0.00212403, No Iterations 1
smoothSolver:  Solving for k, Initial residual = 0.246172, Final residual = 0.0191443, No Iterations 1
ExecutionTime = 10.2755 s  ClockTime = 13 s

forceCoeffs forceCoeffs1 write:
    Cm    = 0
    Cd    = 0
    Cl    = 0
    Cl(f) = 0
    Cl(r) = 0

Time = 4s

smoothSolver:  Solving for Ux, Initial residual = 0.0978053, Final residual = 0.00783264, No Iterations 5
smoothSolver:  Solving for Uy, Initial residual = 0.342999, Final residual = 0.0270249, No Iterations 3
smoothSolver:  Solving for Uz, Initial residual = 0.0267646, Final residual = 0.00240733, No Iterations 3
GAMG:  Solving for p, Initial residual = 0.0665945, Final residual = 0.00060026, No Iterations 6
time step continuity errors : sum local = 3.1302e-05, global = -1.807e-06, cumulative = -9.06952e-07
smoothSolver:  Solving for omega, Initial residual = 0.0257528, Final residual = 0.00188419, No Iterations 1
smoothSolver:  Solving for k, Initial residual = 0.16483, Final residual = 0.0133175, No Iterations 1
ExecutionTime = 10.2987 s  ClockTime = 13 s

forceCoeffs forceCoeffs1 write:
    Cm    = 0
    Cd    = 0
    Cl    = 0
    Cl(f) = 0
    Cl(r) = 0

Time = 5s

smoothSolver:  Solving for Ux, Initial residual = 0.0881899, Final residual = 0.00678094, No Iterations 4
smoothSolver:  Solving for Uy, Initial residual = 0.340386, Final residual = 0.0191275, No Iterations 3
smoothSolver:  Solving for Uz, Initial residual = 0.0247526, Final residual = 0.00226876, No Iterations 3
GAMG:  Solving for p, Initial residual = 0.0502954, Final residual = 0.000482974, No Iterations 6
time step continuity errors : sum local = 2.57191e-05, global = -3.48845e-06, cumulative = -4.3954e-06
smoothSolver:  Solving for omega, Initial residual = 0.0226922, Final residual = 0.00167555, No Iterations 1
smoothSolver:  Solving for k, Initial residual = 0.12289, Final residual = 0.010401, No Iterations 1
ExecutionTime = 10.3227 s  ClockTime = 13 s

forceCoeffs forceCoeffs1 write:
    Cm    = 0
    Cd    = 0
    Cl    = 0
    Cl(f) = 0
    Cl(r) = 0

Time = 6s

smoothSolver:  Solving for Ux, Initial residual = 0.0744872, Final residual = 0.00530527, No Iterations 4
smoothSolver:  Solving for Uy, Initial residual = 0.32586, Final residual = 0.0178352, No Iterations 3
smoothSolver:  Solving for Uz, Initial residual = 0.0231412, Final residual = 0.00212873, No Iterations 3
GAMG:  Solving for p, Initial residual = 0.0550248, Final residual = 0.000495984, No Iterations 6
time step continuity errors : sum local = 2.1425e-05, global = -3.43626e-06, cumulative = -7.83166e-06
smoothSolver:  Solving for omega, Initial residual = 0.0200277, Final residual = 0.00147577, No Iterations 1
smoothSolver:  Solving for k, Initial residual = 0.0982182, Final residual = 0.00879266, No Iterations 1
ExecutionTime = 10.3474 s  ClockTime = 13 s

forceCoeffs forceCoeffs1 write:
    Cm    = 0
    Cd    = 0
    Cl    = 0
    Cl(f) = 0
    Cl(r) = 0

Time = 7s

smoothSolver:  Solving for Ux, Initial residual = 0.0620488, Final residual = 0.00404549, No Iterations 4
smoothSolver:  Solving for Uy, Initial residual = 0.298893, Final residual = 0.0275324, No Iterations 2
smoothSolver:  Solving for Uz, Initial residual = 0.0217295, Final residual = 0.00199714, No Iterations 3
GAMG:  Solving for p, Initial residual = 0.0597684, Final residual = 0.000458647, No Iterations 6
time step continuity errors : sum local = 1.52954e-05, global = -2.44709e-06, cumulative = -1.02788e-05
smoothSolver:  Solving for omega, Initial residual = 0.0176726, Final residual = 0.00129567, No Iterations 1
smoothSolver:  Solving for k, Initial residual = 0.082317, Final residual = 0.0078137, No Iterations 1
ExecutionTime = 10.3716 s  ClockTime = 13 s

forceCoeffs forceCoeffs1 write:
    Cm    = 0
    Cd    = 0
    Cl    = 0
    Cl(f) = 0
    Cl(r) = 0

Time = 8s

smoothSolver:  Solving for Ux, Initial residual = 0.0499646, Final residual = 0.00329842, No Iterations 4
smoothSolver:  Solving for Uy, Initial residual = 0.2709, Final residual = 0.0262992, No Iterations 2
smoothSolver:  Solving for Uz, Initial residual = 0.0204316, Final residual = 0.00187344, No Iterations 3
GAMG:  Solving for p, Initial residual = 0.0626113, Final residual = 0.000559377, No Iterations 5
time step continuity errors : sum local = 1.55044e-05, global = 3.76806e-06, cumulative = -6.5107e-06
smoothSolver:  Solving for omega, Initial residual = 0.0156965, Final residual = 0.00117094, No Iterations 1
smoothSolver:  Solving for k, Initial residual = 0.0717305, Final residual = 0.000887432, No Iterations 2
ExecutionTime = 10.4032 s  ClockTime = 13 s

forceCoeffs forceCoeffs1 write:
    Cm    = 0
    Cd    = 0
    Cl    = 0
    Cl(f) = 0
    Cl(r) = 0

Time = 9s

smoothSolver:  Solving for Ux, Initial residual = 0.0392841, Final residual = 0.00259856, No Iterations 4
smoothSolver:  Solving for Uy, Initial residual = 0.246317, Final residual = 0.0129848, No Iterations 3
smoothSolver:  Solving for Uz, Initial residual = 0.0192804, Final residual = 0.00177307, No Iterations 3
GAMG:  Solving for p, Initial residual = 0.0634983, Final residual = 0.000524598, No Iterations 5
time step continuity errors : sum local = 1.22928e-05, global = 1.85934e-06, cumulative = -4.65136e-06
smoothSolver:  Solving for omega, Initial residual = 0.0142585, Final residual = 0.00111487, No Iterations 1
smoothSolver:  Solving for k, Initial residual = 0.0637896, Final residual = 0.000879428, No Iterations 2
ExecutionTime = 10.4353 s  ClockTime = 13 s

forceCoeffs forceCoeffs1 write:
    Cm    = 0
    Cd    = 0
    Cl    = 0
    Cl(f) = 0
    Cl(r) = 0

Time = 10s

smoothSolver:  Solving for Ux, Initial residual = 0.032989, Final residual = 0.00228655, No Iterations 4
smoothSolver:  Solving for Uy, Initial residual = 0.227156, Final residual = 0.0120096, No Iterations 3
smoothSolver:  Solving for Uz, Initial residual = 0.0182302, Final residual = 0.00169527, No Iterations 3
GAMG:  Solving for p, Initial residual = 0.0632808, Final residual = 0.000542161, No Iterations 5
time step continuity errors : sum local = 1.07047e-05, global = -4.3041e-07, cumulative = -5.08177e-06
smoothSolver:  Solving for omega, Initial residual = 0.0133578, Final residual = 0.0011484, No Iterations 1
smoothSolver:  Solving for k, Initial residual = 0.0577446, Final residual = 0.000868748, No Iterations 2
ExecutionTime = 10.4682 s  ClockTime = 13 s

forceCoeffs forceCoeffs1 write:
    Cm    = 0
    Cd    = 0
    Cl    = 0
    Cl(f) = 0
    Cl(r) = 0

Time = 11s

smoothSolver:  Solving for Ux, Initial residual = 0.02845, Final residual = 0.00213709, No Iterations 4
smoothSolver:  Solving for Uy, Initial residual = 0.206652, Final residual = 0.0116602, No Iterations 3
smoothSolver:  Solving for Uz, Initial residual = 0.0172169, Final residual = 0.0016109, No Iterations 3
GAMG:  Solving for p, Initial residual = 0.0607859, Final residual = 0.00049793, No Iterations 5
time step continuity errors : sum local = 9.15359e-06, global = 3.19494e-09, cumulative = -5.07857e-06
smoothSolver:  Solving for omega, Initial residual = 0.0125069, Final residual = 0.00115776, No Iterations 1
smoothSolver:  Solving for k, Initial residual = 0.0519926, Final residual = 0.000835408, No Iterations 2
ExecutionTime = 10.5027 s  ClockTime = 13 s

forceCoeffs forceCoeffs1 write:
    Cm    = 0
    Cd    = 0
    Cl    = 0
    Cl(f) = 0
    Cl(r) = 0

Time = 12s

smoothSolver:  Solving for Ux, Initial residual = 0.0255679, Final residual = 0.00192534, No Iterations 4
smoothSolver:  Solving for Uy, Initial residual = 0.189446, Final residual = 0.0106594, No Iterations 3
smoothSolver:  Solving for Uz, Initial residual = 0.0163045, Final residual = 0.00153416, No Iterations 3
GAMG:  Solving for p, Initial residual = 0.0566512, Final residual = 0.000507397, No Iterations 5
time step continuity errors : sum local = 9.14593e-06, global = -1.61648e-07, cumulative = -5.24022e-06
smoothSolver:  Solving for omega, Initial residual = 0.0114818, Final residual = 0.00110541, No Iterations 1
smoothSolver:  Solving for k, Initial residual = 0.0462815, Final residual = 0.000786192, No Iterations 2
ExecutionTime = 10.5366 s  ClockTime = 13 s

forceCoeffs forceCoeffs1 write:
    Cm    = 0
    Cd    = 0
    Cl    = 0
    Cl(f) = 0
    Cl(r) = 0

Time = 13s

smoothSolver:  Solving for Ux, Initial residual = 0.0238206, Final residual = 0.00174488, No Iterations 4
smoothSolver:  Solving for Uy, Initial residual = 0.177543, Final residual = 0.00987163, No Iterations 3
smoothSolver:  Solving for Uz, Initial residual = 0.0155056, Final residual = 0.001468, No Iterations 3
GAMG:  Solving for p, Initial residual = 0.0540676, Final residual = 0.000521729, No Iterations 5
time step continuity errors : sum local = 9.25943e-06, global = -2.0007e-08, cumulative = -5.26023e-06
smoothSolver:  Solving for omega, Initial residual = 0.0102778, Final residual = 0.00100053, No Iterations 1
smoothSolver:  Solving for k, Initial residual = 0.0412172, Final residual = 0.000733608, No Iterations 2
ExecutionTime = 10.5704 s  ClockTime = 13 s

forceCoeffs forceCoeffs1 write:
    Cm    = 0
    Cd    = 0
    Cl    = 0
    Cl(f) = 0
    Cl(r) = 0

Time = 14s

smoothSolver:  Solving for Ux, Initial residual = 0.0224466, Final residual = 0.00162139, No Iterations 4
smoothSolver:  Solving for Uy, Initial residual = 0.167828, Final residual = 0.00975172, No Iterations 3
smoothSolver:  Solving for Uz, Initial residual = 0.014806, Final residual = 0.00141227, No Iterations 3
GAMG:  Solving for p, Initial residual = 0.0528169, Final residual = 0.000393748, No Iterations 6
time step continuity errors : sum local = 6.69872e-06, global = 3.97103e-08, cumulative = -5.22052e-06
smoothSolver:  Solving for omega, Initial residual = 0.00902455, Final residual = 0.000881887, No Iterations 1
smoothSolver:  Solving for k, Initial residual = 0.037059, Final residual = 0.000687124, No Iterations 2
ExecutionTime = 10.6051 s  ClockTime = 13 s

forceCoeffs forceCoeffs1 write:
    Cm    = 0
    Cd    = 0
    Cl    = 0
    Cl(f) = 0
    Cl(r) = 0

Time = 15s

smoothSolver:  Solving for Ux, Initial residual = 0.0212638, Final residual = 0.00151311, No Iterations 4
smoothSolver:  Solving for Uy, Initial residual = 0.159552, Final residual = 0.00942231, No Iterations 3
smoothSolver:  Solving for Uz, Initial residual = 0.014187, Final residual = 0.0013649, No Iterations 3
GAMG:  Solving for p, Initial residual = 0.0516885, Final residual = 0.000431633, No Iterations 6
time step continuity errors : sum local = 6.93002e-06, global = -3.08212e-08, cumulative = -5.25134e-06
smoothSolver:  Solving for omega, Initial residual = 0.00788161, Final residual = 0.000775209, No Iterations 1
smoothSolver:  Solving for k, Initial residual = 0.0336035, Final residual = 0.000645187, No Iterations 2
ExecutionTime = 10.64 s  ClockTime = 13 s

forceCoeffs forceCoeffs1 write:
    Cm    = 0
    Cd    = 0
    Cl    = 0
    Cl(f) = 0
    Cl(r) = 0

Time = 16s

smoothSolver:  Solving for Ux, Initial residual = 0.0199737, Final residual = 0.00139965, No Iterations 4
smoothSolver:  Solving for Uy, Initial residual = 0.15298, Final residual = 0.00880458, No Iterations 3
smoothSolver:  Solving for Uz, Initial residual = 0.0136285, Final residual = 0.00132264, No Iterations 3
GAMG:  Solving for p, Initial residual = 0.0507567, Final residual = 0.000459144, No Iterations 6
time step continuity errors : sum local = 6.9318e-06, global = -1.35809e-07, cumulative = -5.38715e-06
smoothSolver:  Solving for omega, Initial residual = 0.00692382, Final residual = 0.000691398, No Iterations 1
smoothSolver:  Solving for k, Initial residual = 0.0307098, Final residual = 0.000608871, No Iterations 2
ExecutionTime = 10.6743 s  ClockTime = 13 s

forceCoeffs forceCoeffs1 write:
    Cm    = 0
    Cd    = 0
    Cl    = 0
    Cl(f) = 0
    Cl(r) = 0

Time = 17s

smoothSolver:  Solving for Ux, Initial residual = 0.0185629, Final residual = 0.00128376, No Iterations 4
smoothSolver:  Solving for Uy, Initial residual = 0.148062, Final residual = 0.00806182, No Iterations 3
smoothSolver:  Solving for Uz, Initial residual = 0.0131186, Final residual = 0.00128357, No Iterations 3
GAMG:  Solving for p, Initial residual = 0.0495766, Final residual = 0.000481159, No Iterations 6
time step continuity errors : sum local = 6.82546e-06, global = -3.57728e-07, cumulative = -5.74487e-06
smoothSolver:  Solving for omega, Initial residual = 0.00616567, Final residual = 8.60905e-05, No Iterations 2
smoothSolver:  Solving for k, Initial residual = 0.0281983, Final residual = 0.0005741, No Iterations 2
ExecutionTime = 10.707 s  ClockTime = 13 s

forceCoeffs forceCoeffs1 write:
    Cm    = 0
    Cd    = 0
    Cl    = 0
    Cl(f) = 0
    Cl(r) = 0

Time = 18s

smoothSolver:  Solving for Ux, Initial residual = 0.0174156, Final residual = 0.00121002, No Iterations 4
smoothSolver:  Solving for Uy, Initial residual = 0.144732, Final residual = 0.00790917, No Iterations 3
smoothSolver:  Solving for Uz, Initial residual = 0.0126469, Final residual = 0.00124753, No Iterations 3
GAMG:  Solving for p, Initial residual = 0.0483539, Final residual = 0.000347975, No Iterations 7
time step continuity errors : sum local = 4.63001e-06, global = 3.04326e-07, cumulative = -5.44055e-06
smoothSolver:  Solving for omega, Initial residual = 0.00547486, Final residual = 8.11844e-05, No Iterations 2
smoothSolver:  Solving for k, Initial residual = 0.0260638, Final residual = 0.000542083, No Iterations 2
ExecutionTime = 10.7421 s  ClockTime = 13 s

forceCoeffs forceCoeffs1 write:
    Cm    = 0
    Cd    = 0
    Cl    = 0
    Cl(f) = 0
    Cl(r) = 0

Time = 19s

smoothSolver:  Solving for Ux, Initial residual = 0.0170307, Final residual = 0.0012022, No Iterations 4
smoothSolver:  Solving for Uy, Initial residual = 0.142935, Final residual = 0.00854562, No Iterations 3
smoothSolver:  Solving for Uz, Initial residual = 0.0122134, Final residual = 0.00121467, No Iterations 3
GAMG:  Solving for p, Initial residual = 0.0459754, Final residual = 0.00036705, No Iterations 7
time step continuity errors : sum local = 4.59689e-06, global = 3.84546e-07, cumulative = -5.056e-06
smoothSolver:  Solving for omega, Initial residual = 0.00492904, Final residual = 7.74669e-05, No Iterations 2
smoothSolver:  Solving for k, Initial residual = 0.0242165, Final residual = 0.000512754, No Iterations 2
ExecutionTime = 10.7773 s  ClockTime = 13 s

forceCoeffs forceCoeffs1 write:
    Cm    = 0
    Cd    = 0
    Cl    = 0
    Cl(f) = 0
    Cl(r) = 0

Time = 20s

smoothSolver:  Solving for Ux, Initial residual = 0.0170137, Final residual = 0.00121489, No Iterations 4
smoothSolver:  Solving for Uy, Initial residual = 0.142202, Final residual = 0.00904409, No Iterations 3
smoothSolver:  Solving for Uz, Initial residual = 0.0118138, Final residual = 0.000760384, No Iterations 4
GAMG:  Solving for p, Initial residual = 0.0442243, Final residual = 0.000406538, No Iterations 6
time step continuity errors : sum local = 4.67188e-06, global = 9.05187e-09, cumulative = -5.04695e-06
smoothSolver:  Solving for omega, Initial residual = 0.00450066, Final residual = 7.59715e-05, No Iterations 2
smoothSolver:  Solving for k, Initial residual = 0.0225039, Final residual = 0.000483547, No Iterations 2
ExecutionTime = 10.8114 s  ClockTime = 13 s

forceCoeffs forceCoeffs1 write:
    Cm    = 0
    Cd    = 0
    Cl    = 0
    Cl(f) = 0
    Cl(r) = 0

Time = 21s

smoothSolver:  Solving for Ux, Initial residual = 0.0157237, Final residual = 0.00117515, No Iterations 4
smoothSolver:  Solving for Uy, Initial residual = 0.140404, Final residual = 0.00930147, No Iterations 3
smoothSolver:  Solving for Uz, Initial residual = 0.0114418, Final residual = 0.000743601, No Iterations 4
GAMG:  Solving for p, Initial residual = 0.0418227, Final residual = 0.000288888, No Iterations 7
time step continuity errors : sum local = 3.08346e-06, global = 1.61932e-07, cumulative = -4.88502e-06
smoothSolver:  Solving for omega, Initial residual = 0.00413059, Final residual = 7.41214e-05, No Iterations 2
smoothSolver:  Solving for k, Initial residual = 0.020995, Final residual = 0.000457314, No Iterations 2
ExecutionTime = 10.8475 s  ClockTime = 13 s

forceCoeffs forceCoeffs1 write:
    Cm    = 0
    Cd    = 0
    Cl    = 0
    Cl(f) = 0
    Cl(r) = 0

Time = 22s

smoothSolver:  Solving for Ux, Initial residual = 0.016512, Final residual = 0.0011976, No Iterations 4
smoothSolver:  Solving for Uy, Initial residual = 0.144725, Final residual = 0.00929962, No Iterations 3
smoothSolver:  Solving for Uz, Initial residual = 0.0110879, Final residual = 0.000726772, No Iterations 4
GAMG:  Solving for p, Initial residual = 0.0391313, Final residual = 0.00033147, No Iterations 7
time step continuity errors : sum local = 3.30077e-06, global = 2.73888e-07, cumulative = -4.61113e-06
smoothSolver:  Solving for omega, Initial residual = 0.00379913, Final residual = 7.18521e-05, No Iterations 2
smoothSolver:  Solving for k, Initial residual = 0.0196604, Final residual = 0.000434124, No Iterations 2
ExecutionTime = 10.8834 s  ClockTime = 13 s

forceCoeffs forceCoeffs1 write:
    Cm    = 0
    Cd    = 0
    Cl    = 0
    Cl(f) = 0
    Cl(r) = 0

Time = 23s

smoothSolver:  Solving for Ux, Initial residual = 0.0165257, Final residual = 0.00120913, No Iterations 4
smoothSolver:  Solving for Uy, Initial residual = 0.145398, Final residual = 0.00869837, No Iterations 3
smoothSolver:  Solving for Uz, Initial residual = 0.0107508, Final residual = 0.000710311, No Iterations 4
GAMG:  Solving for p, Initial residual = 0.0365253, Final residual = 0.000337542, No Iterations 7
time step continuity errors : sum local = 3.17769e-06, global = 2.52182e-07, cumulative = -4.35895e-06
smoothSolver:  Solving for omega, Initial residual = 0.00350045, Final residual = 6.93289e-05, No Iterations 2
smoothSolver:  Solving for k, Initial residual = 0.0185002, Final residual = 0.000413907, No Iterations 2
ExecutionTime = 10.9102 s  ClockTime = 13 s

forceCoeffs forceCoeffs1 write:
    Cm    = 0
    Cd    = 0
    Cl    = 0
    Cl(f) = 0
    Cl(r) = 0

Time = 24s

smoothSolver:  Solving for Ux, Initial residual = 0.0160472, Final residual = 0.00120625, No Iterations 4
smoothSolver:  Solving for Uy, Initial residual = 0.141904, Final residual = 0.0080517, No Iterations 3
smoothSolver:  Solving for Uz, Initial residual = 0.0104305, Final residual = 0.000694147, No Iterations 4
GAMG:  Solving for p, Initial residual = 0.0343086, Final residual = 0.000312181, No Iterations 7
time step continuity errors : sum local = 2.81093e-06, global = 1.61514e-07, cumulative = -4.19743e-06
smoothSolver:  Solving for omega, Initial residual = 0.00323027, Final residual = 6.65143e-05, No Iterations 2
smoothSolver:  Solving for k, Initial residual = 0.017482, Final residual = 0.000396499, No Iterations 2
ExecutionTime = 10.9353 s  ClockTime = 13 s

forceCoeffs forceCoeffs1 write:
    Cm    = 0
    Cd    = 0
    Cl    = 0
    Cl(f) = 0
    Cl(r) = 0

Time = 25s

smoothSolver:  Solving for Ux, Initial residual = 0.0152994, Final residual = 0.00119681, No Iterations 4
smoothSolver:  Solving for Uy, Initial residual = 0.133099, Final residual = 0.00856423, No Iterations 3
smoothSolver:  Solving for Uz, Initial residual = 0.0101239, Final residual = 0.000678534, No Iterations 4
GAMG:  Solving for p, Initial residual = 0.0323985, Final residual = 0.000277342, No Iterations 7
time step continuity errors : sum local = 2.41255e-06, global = 7.55676e-08, cumulative = -4.12187e-06
smoothSolver:  Solving for omega, Initial residual = 0.00298621, Final residual = 6.35836e-05, No Iterations 2
smoothSolver:  Solving for k, Initial residual = 0.0165793, Final residual = 0.000380472, No Iterations 2
ExecutionTime = 10.9606 s  ClockTime = 13 s

forceCoeffs forceCoeffs1 write:
    Cm    = 0
    Cd    = 0
    Cl    = 0
    Cl(f) = 0
    Cl(r) = 0

Time = 26s

smoothSolver:  Solving for Ux, Initial residual = 0.0142794, Final residual = 0.00117396, No Iterations 4
smoothSolver:  Solving for Uy, Initial residual = 0.123029, Final residual = 0.00914918, No Iterations 3
smoothSolver:  Solving for Uz, Initial residual = 0.00983124, Final residual = 0.000663846, No Iterations 4
GAMG:  Solving for p, Initial residual = 0.0306957, Final residual = 0.000249113, No Iterations 7
time step continuity errors : sum local = 2.10857e-06, global = 3.41756e-08, cumulative = -4.08769e-06
smoothSolver:  Solving for omega, Initial residual = 0.00276873, Final residual = 6.06002e-05, No Iterations 2
smoothSolver:  Solving for k, Initial residual = 0.0157643, Final residual = 0.000365557, No Iterations 2
ExecutionTime = 10.9902 s  ClockTime = 13 s

forceCoeffs forceCoeffs1 write:
    Cm    = 0
    Cd    = 0
    Cl    = 0
    Cl(f) = 0
    Cl(r) = 0

Time = 27s

smoothSolver:  Solving for Ux, Initial residual = 0.0131058, Final residual = 0.00112325, No Iterations 4
smoothSolver:  Solving for Uy, Initial residual = 0.113011, Final residual = 0.00907467, No Iterations 3
smoothSolver:  Solving for Uz, Initial residual = 0.00955179, Final residual = 0.000650296, No Iterations 4
GAMG:  Solving for p, Initial residual = 0.0291372, Final residual = 0.000237651, No Iterations 7
time step continuity errors : sum local = 1.96475e-06, global = 2.18206e-08, cumulative = -4.06587e-06
smoothSolver:  Solving for omega, Initial residual = 0.00257303, Final residual = 5.77283e-05, No Iterations 2
smoothSolver:  Solving for k, Initial residual = 0.0150333, Final residual = 0.00035157, No Iterations 2
ExecutionTime = 11.0246 s  ClockTime = 13 s

forceCoeffs forceCoeffs1 write:
    Cm    = 0
    Cd    = 0
    Cl    = 0
    Cl(f) = 0
    Cl(r) = 0

Time = 28s

smoothSolver:  Solving for Ux, Initial residual = 0.0118892, Final residual = 0.00105358, No Iterations 4
smoothSolver:  Solving for Uy, Initial residual = 0.102985, Final residual = 0.00834009, No Iterations 3
smoothSolver:  Solving for Uz, Initial residual = 0.00928735, Final residual = 0.000638214, No Iterations 4
GAMG:  Solving for p, Initial residual = 0.0277352, Final residual = 0.000247983, No Iterations 7
time step continuity errors : sum local = 2.01017e-06, global = 1.49792e-08, cumulative = -4.05089e-06
smoothSolver:  Solving for omega, Initial residual = 0.00239728, Final residual = 5.50114e-05, No Iterations 2
smoothSolver:  Solving for k, Initial residual = 0.0143761, Final residual = 0.000338362, No Iterations 2
ExecutionTime = 11.0605 s  ClockTime = 14 s

forceCoeffs forceCoeffs1 write:
    Cm    = 0
    Cd    = 0
    Cl    = 0
    Cl(f) = 0
    Cl(r) = 0

Time = 29s

smoothSolver:  Solving for Ux, Initial residual = 0.011068, Final residual = 0.000976186, No Iterations 4
smoothSolver:  Solving for Uy, Initial residual = 0.0963797, Final residual = 0.00715395, No Iterations 3
smoothSolver:  Solving for Uz, Initial residual = 0.00903755, Final residual = 0.000627444, No Iterations 4
GAMG:  Solving for p, Initial residual = 0.0264667, Final residual = 0.000195497, No Iterations 8
time step continuity errors : sum local = 1.55926e-06, global = -2.77757e-09, cumulative = -4.05367e-06
smoothSolver:  Solving for omega, Initial residual = 0.00224021, Final residual = 5.25015e-05, No Iterations 2
smoothSolver:  Solving for k, Initial residual = 0.0137758, Final residual = 0.000325826, No Iterations 2
ExecutionTime = 11.0976 s  ClockTime = 14 s

forceCoeffs forceCoeffs1 write:
    Cm    = 0
    Cd    = 0
    Cl    = 0
    Cl(f) = 0
    Cl(r) = 0

Time = 30s

smoothSolver:  Solving for Ux, Initial residual = 0.0107547, Final residual = 0.000924436, No Iterations 4
smoothSolver:  Solving for Uy, Initial residual = 0.0945543, Final residual = 0.00601013, No Iterations 3
smoothSolver:  Solving for Uz, Initial residual = 0.00880036, Final residual = 0.000617491, No Iterations 4
GAMG:  Solving for p, Initial residual = 0.0253899, Final residual = 0.000203741, No Iterations 8
time step continuity errors : sum local = 1.60362e-06, global = -7.51577e-09, cumulative = -4.06118e-06
smoothSolver:  Solving for omega, Initial residual = 0.00209898, Final residual = 5.02396e-05, No Iterations 2
smoothSolver:  Solving for k, Initial residual = 0.0132267, Final residual = 0.000313989, No Iterations 2
ExecutionTime = 11.1326 s  ClockTime = 14 s

forceCoeffs forceCoeffs1 write:
    Cm    = 0
    Cd    = 0
    Cl    = 0
    Cl(f) = 0
    Cl(r) = 0

Time = 31s

smoothSolver:  Solving for Ux, Initial residual = 0.0105499, Final residual = 0.000908068, No Iterations 4
smoothSolver:  Solving for Uy, Initial residual = 0.0941267, Final residual = 0.00537106, No Iterations 3
smoothSolver:  Solving for Uz, Initial residual = 0.00857367, Final residual = 0.00060796, No Iterations 4
GAMG:  Solving for p, Initial residual = 0.0243554, Final residual = 0.000203613, No Iterations 8
time step continuity errors : sum local = 1.58529e-06, global = -8.90348e-09, cumulative = -4.07009e-06
smoothSolver:  Solving for omega, Initial residual = 0.00196957, Final residual = 4.81832e-05, No Iterations 2
smoothSolver:  Solving for k, Initial residual = 0.0127212, Final residual = 0.000303108, No Iterations 2
ExecutionTime = 11.1695 s  ClockTime = 14 s

forceCoeffs forceCoeffs1 write:
    Cm    = 0
    Cd    = 0
    Cl    = 0
    Cl(f) = 0
    Cl(r) = 0

Time = 32s

smoothSolver:  Solving for Ux, Initial residual = 0.0102766, Final residual = 0.000893454, No Iterations 4
smoothSolver:  Solving for Uy, Initial residual = 0.0918796, Final residual = 0.00566172, No Iterations 3
smoothSolver:  Solving for Uz, Initial residual = 0.0083577, Final residual = 0.000598528, No Iterations 4
GAMG:  Solving for p, Initial residual = 0.0232383, Final residual = 0.000194297, No Iterations 8
time step continuity errors : sum local = 1.4991e-06, global = -8.5603e-09, cumulative = -4.07865e-06
smoothSolver:  Solving for omega, Initial residual = 0.00185098, Final residual = 4.62513e-05, No Iterations 2
smoothSolver:  Solving for k, Initial residual = 0.0122564, Final residual = 0.000293009, No Iterations 2
ExecutionTime = 11.2052 s  ClockTime = 14 s

forceCoeffs forceCoeffs1 write:
    Cm    = 0
    Cd    = 0
    Cl    = 0
    Cl(f) = 0
    Cl(r) = 0

Time = 33s

smoothSolver:  Solving for Ux, Initial residual = 0.0098008, Final residual = 0.000859874, No Iterations 4
smoothSolver:  Solving for Uy, Initial residual = 0.0871376, Final residual = 0.00575449, No Iterations 3
smoothSolver:  Solving for Uz, Initial residual = 0.0081519, Final residual = 0.000589204, No Iterations 4
GAMG:  Solving for p, Initial residual = 0.0220949, Final residual = 0.000179252, No Iterations 8
time step continuity errors : sum local = 1.37256e-06, global = -8.67127e-09, cumulative = -4.08732e-06
smoothSolver:  Solving for omega, Initial residual = 0.00174185, Final residual = 4.44077e-05, No Iterations 2
smoothSolver:  Solving for k, Initial residual = 0.0118283, Final residual = 0.000283648, No Iterations 2
ExecutionTime = 11.2411 s  ClockTime = 14 s

forceCoeffs forceCoeffs1 write:
    Cm    = 0
    Cd    = 0
    Cl    = 0
    Cl(f) = 0
    Cl(r) = 0

Time = 34s

smoothSolver:  Solving for Ux, Initial residual = 0.00914234, Final residual = 0.000811898, No Iterations 4
smoothSolver:  Solving for Uy, Initial residual = 0.0806087, Final residual = 0.00553249, No Iterations 3
smoothSolver:  Solving for Uz, Initial residual = 0.00795236, Final residual = 0.000580153, No Iterations 4
GAMG:  Solving for p, Initial residual = 0.0210539, Final residual = 0.000163055, No Iterations 8
time step continuity errors : sum local = 1.24049e-06, global = -8.24717e-09, cumulative = -4.09557e-06
smoothSolver:  Solving for omega, Initial residual = 0.00164141, Final residual = 4.26524e-05, No Iterations 2
smoothSolver:  Solving for k, Initial residual = 0.011427, Final residual = 0.000274872, No Iterations 2
ExecutionTime = 11.2751 s  ClockTime = 14 s

forceCoeffs forceCoeffs1 write:
    Cm    = 0
    Cd    = 0
    Cl    = 0
    Cl(f) = 0
    Cl(r) = 0

Time = 35s

smoothSolver:  Solving for Ux, Initial residual = 0.0084624, Final residual = 0.000757193, No Iterations 4
smoothSolver:  Solving for Uy, Initial residual = 0.0742242, Final residual = 0.005136, No Iterations 3
smoothSolver:  Solving for Uz, Initial residual = 0.00775891, Final residual = 0.00057136, No Iterations 4
GAMG:  Solving for p, Initial residual = 0.0201183, Final residual = 0.000153291, No Iterations 8
time step continuity errors : sum local = 1.15973e-06, global = -7.59637e-09, cumulative = -4.10316e-06
smoothSolver:  Solving for omega, Initial residual = 0.00155005, Final residual = 4.10141e-05, No Iterations 2
smoothSolver:  Solving for k, Initial residual = 0.0110453, Final residual = 0.00026642, No Iterations 2
ExecutionTime = 11.309 s  ClockTime = 14 s

forceCoeffs forceCoeffs1 write:
    Cm    = 0
    Cd    = 0
    Cl    = 0
    Cl(f) = 0
    Cl(r) = 0

Time = 36s

smoothSolver:  Solving for Ux, Initial residual = 0.00797099, Final residual = 0.000708839, No Iterations 4
smoothSolver:  Solving for Uy, Initial residual = 0.06962, Final residual = 0.00470118, No Iterations 3
smoothSolver:  Solving for Uz, Initial residual = 0.00757308, Final residual = 0.000562921, No Iterations 4
GAMG:  Solving for p, Initial residual = 0.0192992, Final residual = 0.000151879, No Iterations 8
time step continuity errors : sum local = 1.14363e-06, global = -6.56448e-09, cumulative = -4.10973e-06
smoothSolver:  Solving for omega, Initial residual = 0.00146679, Final residual = 3.94362e-05, No Iterations 2
smoothSolver:  Solving for k, Initial residual = 0.0106818, Final residual = 0.000258229, No Iterations 2
ExecutionTime = 11.3421 s  ClockTime = 14 s

forceCoeffs forceCoeffs1 write:
    Cm    = 0
    Cd    = 0
    Cl    = 0
    Cl(f) = 0
    Cl(r) = 0

Time = 37s

smoothSolver:  Solving for Ux, Initial residual = 0.00769191, Final residual = 0.00067746, No Iterations 4
smoothSolver:  Solving for Uy, Initial residual = 0.0679732, Final residual = 0.00447017, No Iterations 3
smoothSolver:  Solving for Uz, Initial residual = 0.00739576, Final residual = 0.000554924, No Iterations 4
GAMG:  Solving for p, Initial residual = 0.0186013, Final residual = 0.00015055, No Iterations 8
time step continuity errors : sum local = 1.12945e-06, global = -5.26016e-09, cumulative = -4.11499e-06
smoothSolver:  Solving for omega, Initial residual = 0.00139076, Final residual = 3.79272e-05, No Iterations 2
smoothSolver:  Solving for k, Initial residual = 0.0103421, Final residual = 0.000250384, No Iterations 2
ExecutionTime = 11.3749 s  ClockTime = 14 s

forceCoeffs forceCoeffs1 write:
    Cm    = 0
    Cd    = 0
    Cl    = 0
    Cl(f) = 0
    Cl(r) = 0

Time = 38s

smoothSolver:  Solving for Ux, Initial residual = 0.00754801, Final residual = 0.000661357, No Iterations 4
smoothSolver:  Solving for Uy, Initial residual = 0.067732, Final residual = 0.00444729, No Iterations 3
smoothSolver:  Solving for Uz, Initial residual = 0.00722735, Final residual = 0.000547325, No Iterations 4
GAMG:  Solving for p, Initial residual = 0.0179695, Final residual = 0.000145877, No Iterations 8
time step continuity errors : sum local = 1.09171e-06, global = -3.80515e-09, cumulative = -4.11879e-06
smoothSolver:  Solving for omega, Initial residual = 0.00132106, Final residual = 3.64935e-05, No Iterations 2
smoothSolver:  Solving for k, Initial residual = 0.0100233, Final residual = 0.000242896, No Iterations 2
ExecutionTime = 11.4087 s  ClockTime = 14 s

forceCoeffs forceCoeffs1 write:
    Cm    = 0
    Cd    = 0
    Cl    = 0
    Cl(f) = 0
    Cl(r) = 0

Time = 39s

smoothSolver:  Solving for Ux, Initial residual = 0.00744705, Final residual = 0.00065602, No Iterations 4
smoothSolver:  Solving for Uy, Initial residual = 0.0669261, Final residual = 0.00442992, No Iterations 3
smoothSolver:  Solving for Uz, Initial residual = 0.00706724, Final residual = 0.000539919, No Iterations 4
GAMG:  Solving for p, Initial residual = 0.0173561, Final residual = 0.000138547, No Iterations 8
time step continuity errors : sum local = 1.03562e-06, global = -3.00724e-09, cumulative = -4.1218e-06
smoothSolver:  Solving for omega, Initial residual = 0.00125686, Final residual = 3.51284e-05, No Iterations 2
smoothSolver:  Solving for k, Initial residual = 0.00972795, Final residual = 0.000236018, No Iterations 2
ExecutionTime = 11.4439 s  ClockTime = 14 s

forceCoeffs forceCoeffs1 write:
    Cm    = 0
    Cd    = 0
    Cl    = 0
    Cl(f) = 0
    Cl(r) = 0

Time = 40s

smoothSolver:  Solving for Ux, Initial residual = 0.00730906, Final residual = 0.000647009, No Iterations 4
smoothSolver:  Solving for Uy, Initial residual = 0.0650421, Final residual = 0.00434434, No Iterations 3
smoothSolver:  Solving for Uz, Initial residual = 0.00691365, Final residual = 0.000532729, No Iterations 4
GAMG:  Solving for p, Initial residual = 0.0167537, Final residual = 0.000130374, No Iterations 8
time step continuity errors : sum local = 9.74061e-07, global = -2.42097e-09, cumulative = -4.12422e-06
smoothSolver:  Solving for omega, Initial residual = 0.00119791, Final residual = 3.38182e-05, No Iterations 2
smoothSolver:  Solving for k, Initial residual = 0.00945276, Final residual = 0.000229454, No Iterations 2
ExecutionTime = 11.4801 s  ClockTime = 14 s

forceCoeffs forceCoeffs1 write:
    Cm    = 0
    Cd    = 0
    Cl    = 0
    Cl(f) = 0
    Cl(r) = 0

Time = 41s

smoothSolver:  Solving for Ux, Initial residual = 0.00710125, Final residual = 0.000633341, No Iterations 4
smoothSolver:  Solving for Uy, Initial residual = 0.0621698, Final residual = 0.00414317, No Iterations 3
smoothSolver:  Solving for Uz, Initial residual = 0.0067636, Final residual = 0.000525714, No Iterations 4
GAMG:  Solving for p, Initial residual = 0.0161749, Final residual = 0.000122618, No Iterations 8
time step continuity errors : sum local = 9.16158e-07, global = -1.85744e-09, cumulative = -4.12608e-06
smoothSolver:  Solving for omega, Initial residual = 0.00114325, Final residual = 3.25838e-05, No Iterations 2
smoothSolver:  Solving for k, Initial residual = 0.00918872, Final residual = 0.000223186, No Iterations 2
ExecutionTime = 11.5155 s  ClockTime = 14 s

forceCoeffs forceCoeffs1 write:
    Cm    = 0
    Cd    = 0
    Cl    = 0
    Cl(f) = 0
    Cl(r) = 0

Time = 42s

smoothSolver:  Solving for Ux, Initial residual = 0.00689037, Final residual = 0.000615665, No Iterations 4
smoothSolver:  Solving for Uy, Initial residual = 0.0597052, Final residual = 0.0040136, No Iterations 3
smoothSolver:  Solving for Uz, Initial residual = 0.00661674, Final residual = 0.00051877, No Iterations 4
GAMG:  Solving for p, Initial residual = 0.0156558, Final residual = 0.000116139, No Iterations 8
time step continuity errors : sum local = 8.68182e-07, global = -2.31608e-10, cumulative = -4.12631e-06
smoothSolver:  Solving for omega, Initial residual = 0.00109268, Final residual = 3.14107e-05, No Iterations 2
smoothSolver:  Solving for k, Initial residual = 0.0089391, Final residual = 0.000217291, No Iterations 2
ExecutionTime = 11.5509 s  ClockTime = 14 s

forceCoeffs forceCoeffs1 write:
    Cm    = 0
    Cd    = 0
    Cl    = 0
    Cl(f) = 0
    Cl(r) = 0

Time = 43s

smoothSolver:  Solving for Ux, Initial residual = 0.00666394, Final residual = 0.00059638, No Iterations 4
smoothSolver:  Solving for Uy, Initial residual = 0.0580532, Final residual = 0.00405313, No Iterations 3
smoothSolver:  Solving for Uz, Initial residual = 0.00647336, Final residual = 0.000511921, No Iterations 4
GAMG:  Solving for p, Initial residual = 0.0151595, Final residual = 0.000111855, No Iterations 8
time step continuity errors : sum local = 8.36846e-07, global = 1.73819e-09, cumulative = -4.12457e-06
smoothSolver:  Solving for omega, Initial residual = 0.00104548, Final residual = 3.02926e-05, No Iterations 2
smoothSolver:  Solving for k, Initial residual = 0.00870468, Final residual = 0.000211687, No Iterations 2
ExecutionTime = 11.5864 s  ClockTime = 14 s

forceCoeffs forceCoeffs1 write:
    Cm    = 0
    Cd    = 0
    Cl    = 0
    Cl(f) = 0
    Cl(r) = 0

Time = 44s

smoothSolver:  Solving for Ux, Initial residual = 0.00643484, Final residual = 0.000574992, No Iterations 4
smoothSolver:  Solving for Uy, Initial residual = 0.0568286, Final residual = 0.00407365, No Iterations 3
smoothSolver:  Solving for Uz, Initial residual = 0.00633408, Final residual = 0.000505203, No Iterations 4
GAMG:  Solving for p, Initial residual = 0.0146601, Final residual = 0.000110086, No Iterations 8
time step continuity errors : sum local = 8.24466e-07, global = 1.97916e-09, cumulative = -4.12259e-06
smoothSolver:  Solving for omega, Initial residual = 0.00100114, Final residual = 2.92349e-05, No Iterations 2
smoothSolver:  Solving for k, Initial residual = 0.00848149, Final residual = 0.000206421, No Iterations 2
ExecutionTime = 11.6221 s  ClockTime = 14 s

forceCoeffs forceCoeffs1 write:
    Cm    = 0
    Cd    = 0
    Cl    = 0
    Cl(f) = 0
    Cl(r) = 0

Time = 45s

smoothSolver:  Solving for Ux, Initial residual = 0.00619506, Final residual = 0.000552614, No Iterations 4
smoothSolver:  Solving for Uy, Initial residual = 0.0551915, Final residual = 0.00401623, No Iterations 3
smoothSolver:  Solving for Uz, Initial residual = 0.00620009, Final residual = 0.000498666, No Iterations 4
GAMG:  Solving for p, Initial residual = 0.0141279, Final residual = 0.000108638, No Iterations 8
time step continuity errors : sum local = 8.14573e-07, global = 1.87424e-09, cumulative = -4.12072e-06
smoothSolver:  Solving for omega, Initial residual = 0.000959574, Final residual = 2.82292e-05, No Iterations 2
smoothSolver:  Solving for k, Initial residual = 0.00826693, Final residual = 0.000201247, No Iterations 2
ExecutionTime = 11.659 s  ClockTime = 14 s

forceCoeffs forceCoeffs1 write:
    Cm    = 0
    Cd    = 0
    Cl    = 0
    Cl(f) = 0
    Cl(r) = 0

Time = 46s

smoothSolver:  Solving for Ux, Initial residual = 0.00597417, Final residual = 0.000530351, No Iterations 4
smoothSolver:  Solving for Uy, Initial residual = 0.0530467, Final residual = 0.00387475, No Iterations 3
smoothSolver:  Solving for Uz, Initial residual = 0.00607111, Final residual = 0.000492467, No Iterations 4
GAMG:  Solving for p, Initial residual = 0.013623, Final residual = 0.00010656, No Iterations 8
time step continuity errors : sum local = 7.99964e-07, global = 1.89242e-09, cumulative = -4.11883e-06
smoothSolver:  Solving for omega, Initial residual = 0.000920474, Final residual = 2.72867e-05, No Iterations 2
smoothSolver:  Solving for k, Initial residual = 0.00805962, Final residual = 0.000196139, No Iterations 2
ExecutionTime = 11.6953 s  ClockTime = 14 s

forceCoeffs forceCoeffs1 write:
    Cm    = 0
    Cd    = 0
    Cl    = 0
    Cl(f) = 0
    Cl(r) = 0

Time = 47s

smoothSolver:  Solving for Ux, Initial residual = 0.00576852, Final residual = 0.000509569, No Iterations 4
smoothSolver:  Solving for Uy, Initial residual = 0.0510869, Final residual = 0.00362135, No Iterations 3
smoothSolver:  Solving for Uz, Initial residual = 0.00594603, Final residual = 0.000486715, No Iterations 4
GAMG:  Solving for p, Initial residual = 0.0131794, Final residual = 0.000103766, No Iterations 8
time step continuity errors : sum local = 7.79955e-07, global = -6.35359e-10, cumulative = -4.11946e-06
smoothSolver:  Solving for omega, Initial residual = 0.000884046, Final residual = 2.64026e-05, No Iterations 2
smoothSolver:  Solving for k, Initial residual = 0.0078594, Final residual = 0.00019112, No Iterations 2
ExecutionTime = 11.7312 s  ClockTime = 14 s

forceCoeffs forceCoeffs1 write:
    Cm    = 0
    Cd    = 0
    Cl    = 0
    Cl(f) = 0
    Cl(r) = 0

Time = 48s

smoothSolver:  Solving for Ux, Initial residual = 0.00555672, Final residual = 0.000490114, No Iterations 4
smoothSolver:  Solving for Uy, Initial residual = 0.0491512, Final residual = 0.00327075, No Iterations 3
smoothSolver:  Solving for Uz, Initial residual = 0.00582427, Final residual = 0.000481285, No Iterations 4
GAMG:  Solving for p, Initial residual = 0.0127988, Final residual = 0.000101065, No Iterations 8
time step continuity errors : sum local = 7.60597e-07, global = -1.59735e-09, cumulative = -4.12106e-06
smoothSolver:  Solving for omega, Initial residual = 0.000850431, Final residual = 2.55834e-05, No Iterations 2
smoothSolver:  Solving for k, Initial residual = 0.00766712, Final residual = 0.00018622, No Iterations 2
ExecutionTime = 11.7665 s  ClockTime = 14 s

forceCoeffs forceCoeffs1 write:
    Cm    = 0
    Cd    = 0
    Cl    = 0
    Cl(f) = 0
    Cl(r) = 0

Time = 49s

smoothSolver:  Solving for Ux, Initial residual = 0.00536246, Final residual = 0.000472962, No Iterations 4
smoothSolver:  Solving for Uy, Initial residual = 0.047205, Final residual = 0.00297719, No Iterations 3
smoothSolver:  Solving for Uz, Initial residual = 0.00570556, Final residual = 0.000476001, No Iterations 4
GAMG:  Solving for p, Initial residual = 0.0124425, Final residual = 9.75924e-05, No Iterations 8
time step continuity errors : sum local = 7.35378e-07, global = -2.11649e-09, cumulative = -4.12317e-06
smoothSolver:  Solving for omega, Initial residual = 0.000818934, Final residual = 2.4821e-05, No Iterations 2
smoothSolver:  Solving for k, Initial residual = 0.00748196, Final residual = 0.000181461, No Iterations 2
ExecutionTime = 11.8011 s  ClockTime = 14 s

forceCoeffs forceCoeffs1 write:
    Cm    = 0
    Cd    = 0
    Cl    = 0
    Cl(f) = 0
    Cl(r) = 0

Time = 50s

smoothSolver:  Solving for Ux, Initial residual = 0.00518796, Final residual = 0.000457962, No Iterations 4
smoothSolver:  Solving for Uy, Initial residual = 0.0454957, Final residual = 0.0027229, No Iterations 3
smoothSolver:  Solving for Uz, Initial residual = 0.00558998, Final residual = 0.000470761, No Iterations 4
GAMG:  Solving for p, Initial residual = 0.012082, Final residual = 9.34238e-05, No Iterations 8
time step continuity errors : sum local = 7.04809e-07, global = -2.63722e-09, cumulative = -4.12581e-06
smoothSolver:  Solving for omega, Initial residual = 0.000789284, Final residual = 2.41211e-05, No Iterations 2
smoothSolver:  Solving for k, Initial residual = 0.00730526, Final residual = 0.000176868, No Iterations 2
ExecutionTime = 11.8358 s  ClockTime = 14 s

forceCoeffs forceCoeffs1 write:
    Cm    = 0
    Cd    = 0
    Cl    = 0
    Cl(f) = 0
    Cl(r) = 0

Time = 51s

smoothSolver:  Solving for Ux, Initial residual = 0.00500302, Final residual = 0.000441027, No Iterations 4
smoothSolver:  Solving for Uy, Initial residual = 0.0438342, Final residual = 0.00266355, No Iterations 3
smoothSolver:  Solving for Uz, Initial residual = 0.00547633, Final residual = 0.000465535, No Iterations 4
GAMG:  Solving for p, Initial residual = 0.0117125, Final residual = 8.86145e-05, No Iterations 8
time step continuity errors : sum local = 6.69278e-07, global = -2.91989e-09, cumulative = -4.12873e-06
smoothSolver:  Solving for omega, Initial residual = 0.000761546, Final residual = 2.34538e-05, No Iterations 2
smoothSolver:  Solving for k, Initial residual = 0.00713714, Final residual = 0.000172476, No Iterations 2
ExecutionTime = 11.8717 s  ClockTime = 14 s

forceCoeffs forceCoeffs1 write:
    Cm    = 0
    Cd    = 0
    Cl    = 0
    Cl(f) = 0
    Cl(r) = 0

Time = 52s

smoothSolver:  Solving for Ux, Initial residual = 0.00481631, Final residual = 0.000423778, No Iterations 4
smoothSolver:  Solving for Uy, Initial residual = 0.0422051, Final residual = 0.00273479, No Iterations 3
smoothSolver:  Solving for Uz, Initial residual = 0.00536558, Final residual = 0.000460246, No Iterations 4
GAMG:  Solving for p, Initial residual = 0.0113361, Final residual = 8.35303e-05, No Iterations 8
time step continuity errors : sum local = 6.3154e-07, global = -2.99561e-09, cumulative = -4.13173e-06
smoothSolver:  Solving for omega, Initial residual = 0.000735361, Final residual = 2.28098e-05, No Iterations 2
smoothSolver:  Solving for k, Initial residual = 0.00697565, Final residual = 0.000168367, No Iterations 2
ExecutionTime = 11.9089 s  ClockTime = 14 s

forceCoeffs forceCoeffs1 write:
    Cm    = 0
    Cd    = 0
    Cl    = 0
    Cl(f) = 0
    Cl(r) = 0

Time = 53s

smoothSolver:  Solving for Ux, Initial residual = 0.00462698, Final residual = 0.000407098, No Iterations 4
smoothSolver:  Solving for Uy, Initial residual = 0.040437, Final residual = 0.00277981, No Iterations 3
smoothSolver:  Solving for Uz, Initial residual = 0.00525787, Final residual = 0.000454918, No Iterations 4
GAMG:  Solving for p, Initial residual = 0.0109702, Final residual = 0.000108275, No Iterations 7
time step continuity errors : sum local = 8.19415e-07, global = -3.77149e-09, cumulative = -4.1355e-06
smoothSolver:  Solving for omega, Initial residual = 0.000710632, Final residual = 2.21861e-05, No Iterations 2
smoothSolver:  Solving for k, Initial residual = 0.00682182, Final residual = 0.000164484, No Iterations 2
ExecutionTime = 11.9437 s  ClockTime = 14 s

forceCoeffs forceCoeffs1 write:
    Cm    = 0
    Cd    = 0
    Cl    = 0
    Cl(f) = 0
    Cl(r) = 0

Time = 54s

smoothSolver:  Solving for Ux, Initial residual = 0.00446541, Final residual = 0.000393939, No Iterations 4
smoothSolver:  Solving for Uy, Initial residual = 0.0388225, Final residual = 0.00272559, No Iterations 3
smoothSolver:  Solving for Uz, Initial residual = 0.00515257, Final residual = 0.000449547, No Iterations 4
GAMG:  Solving for p, Initial residual = 0.0106254, Final residual = 0.000104007, No Iterations 7
time step continuity errors : sum local = 7.878e-07, global = -3.32106e-09, cumulative = -4.13882e-06
smoothSolver:  Solving for omega, Initial residual = 0.000687449, Final residual = 2.15811e-05, No Iterations 2
smoothSolver:  Solving for k, Initial residual = 0.00667348, Final residual = 0.000160826, No Iterations 2
ExecutionTime = 11.9774 s  ClockTime = 14 s

forceCoeffs forceCoeffs1 write:
    Cm    = 0
    Cd    = 0
    Cl    = 0
    Cl(f) = 0
    Cl(r) = 0

Time = 55s

smoothSolver:  Solving for Ux, Initial residual = 0.00433811, Final residual = 0.000383305, No Iterations 4
smoothSolver:  Solving for Uy, Initial residual = 0.0378675, Final residual = 0.0026032, No Iterations 3
smoothSolver:  Solving for Uz, Initial residual = 0.00504944, Final residual = 0.000444137, No Iterations 4
GAMG:  Solving for p, Initial residual = 0.0103127, Final residual = 0.000100503, No Iterations 7
time step continuity errors : sum local = 7.61861e-07, global = -3.07124e-09, cumulative = -4.14189e-06
smoothSolver:  Solving for omega, Initial residual = 0.000665469, Final residual = 2.0986e-05, No Iterations 2
smoothSolver:  Solving for k, Initial residual = 0.006529, Final residual = 0.000157379, No Iterations 2
ExecutionTime = 12.0118 s  ClockTime = 14 s

forceCoeffs forceCoeffs1 write:
    Cm    = 0
    Cd    = 0
    Cl    = 0
    Cl(f) = 0
    Cl(r) = 0

Time = 56s

smoothSolver:  Solving for Ux, Initial residual = 0.00422387, Final residual = 0.000373265, No Iterations 4
smoothSolver:  Solving for Uy, Initial residual = 0.0370811, Final residual = 0.00247896, No Iterations 3
smoothSolver:  Solving for Uz, Initial residual = 0.00494884, Final residual = 0.000438851, No Iterations 4
GAMG:  Solving for p, Initial residual = 0.0100465, Final residual = 9.77199e-05, No Iterations 7
time step continuity errors : sum local = 7.41296e-07, global = -2.97661e-09, cumulative = -4.14487e-06
smoothSolver:  Solving for omega, Initial residual = 0.000644432, Final residual = 2.04006e-05, No Iterations 2
smoothSolver:  Solving for k, Initial residual = 0.00638949, Final residual = 0.000154049, No Iterations 2
ExecutionTime = 12.0458 s  ClockTime = 15 s

forceCoeffs forceCoeffs1 write:
    Cm    = 0
    Cd    = 0
    Cl    = 0
    Cl(f) = 0
    Cl(r) = 0

Time = 57s

smoothSolver:  Solving for Ux, Initial residual = 0.00412764, Final residual = 0.000361987, No Iterations 4
smoothSolver:  Solving for Uy, Initial residual = 0.0362252, Final residual = 0.00235897, No Iterations 3
smoothSolver:  Solving for Uz, Initial residual = 0.00485163, Final residual = 0.000433648, No Iterations 4
GAMG:  Solving for p, Initial residual = 0.00981727, Final residual = 9.49222e-05, No Iterations 7
time step continuity errors : sum local = 7.20533e-07, global = -2.21882e-09, cumulative = -4.14709e-06
smoothSolver:  Solving for omega, Initial residual = 0.000624582, Final residual = 1.98275e-05, No Iterations 2
smoothSolver:  Solving for k, Initial residual = 0.00625395, Final residual = 0.000150813, No Iterations 2
ExecutionTime = 12.0795 s  ClockTime = 15 s

forceCoeffs forceCoeffs1 write:
    Cm    = 0
    Cd    = 0
    Cl    = 0
    Cl(f) = 0
    Cl(r) = 0

Time = 58s

smoothSolver:  Solving for Ux, Initial residual = 0.00402561, Final residual = 0.000351479, No Iterations 4
smoothSolver:  Solving for Uy, Initial residual = 0.0354584, Final residual = 0.00225794, No Iterations 3
smoothSolver:  Solving for Uz, Initial residual = 0.00475685, Final residual = 0.000428484, No Iterations 4
GAMG:  Solving for p, Initial residual = 0.00958159, Final residual = 9.18254e-05, No Iterations 7
time step continuity errors : sum local = 6.97416e-07, global = -1.69524e-09, cumulative = -4.14878e-06
smoothSolver:  Solving for omega, Initial residual = 0.000605796, Final residual = 1.9268e-05, No Iterations 2
smoothSolver:  Solving for k, Initial residual = 0.00612296, Final residual = 0.000147666, No Iterations 2
ExecutionTime = 12.1136 s  ClockTime = 15 s

forceCoeffs forceCoeffs1 write:
    Cm    = 0
    Cd    = 0
    Cl    = 0
    Cl(f) = 0
    Cl(r) = 0

Time = 59s

smoothSolver:  Solving for Ux, Initial residual = 0.00392287, Final residual = 0.000339843, No Iterations 4
smoothSolver:  Solving for Uy, Initial residual = 0.0347912, Final residual = 0.00214656, No Iterations 3
smoothSolver:  Solving for Uz, Initial residual = 0.00466354, Final residual = 0.000423385, No Iterations 4
GAMG:  Solving for p, Initial residual = 0.00932366, Final residual = 8.88594e-05, No Iterations 7
time step continuity errors : sum local = 6.75213e-07, global = -1.09117e-09, cumulative = -4.14987e-06
smoothSolver:  Solving for omega, Initial residual = 0.000587882, Final residual = 1.87285e-05, No Iterations 2
smoothSolver:  Solving for k, Initial residual = 0.00599694, Final residual = 0.000144614, No Iterations 2
ExecutionTime = 12.1485 s  ClockTime = 15 s

forceCoeffs forceCoeffs1 write:
    Cm    = 0
    Cd    = 0
    Cl    = 0
    Cl(f) = 0
    Cl(r) = 0

Time = 60s

smoothSolver:  Solving for Ux, Initial residual = 0.00381425, Final residual = 0.00032613, No Iterations 4
smoothSolver:  Solving for Uy, Initial residual = 0.0341686, Final residual = 0.00210258, No Iterations 3
smoothSolver:  Solving for Uz, Initial residual = 0.00457132, Final residual = 0.000418366, No Iterations 4
GAMG:  Solving for p, Initial residual = 0.0090618, Final residual = 8.66391e-05, No Iterations 7
time step continuity errors : sum local = 6.58602e-07, global = -6.14751e-10, cumulative = -4.15049e-06
smoothSolver:  Solving for omega, Initial residual = 0.000570982, Final residual = 1.82051e-05, No Iterations 2
smoothSolver:  Solving for k, Initial residual = 0.00587541, Final residual = 0.000141669, No Iterations 2
ExecutionTime = 12.1829 s  ClockTime = 15 s

forceCoeffs forceCoeffs1 write:
    Cm    = 0
    Cd    = 0
    Cl    = 0
    Cl(f) = 0
    Cl(r) = 0

Time = 61s

smoothSolver:  Solving for Ux, Initial residual = 0.0036959, Final residual = 0.000312324, No Iterations 4
smoothSolver:  Solving for Uy, Initial residual = 0.0334154, Final residual = 0.00210333, No Iterations 3
smoothSolver:  Solving for Uz, Initial residual = 0.00448036, Final residual = 0.000413394, No Iterations 4
GAMG:  Solving for p, Initial residual = 0.00880378, Final residual = 8.46604e-05, No Iterations 7
time step continuity errors : sum local = 6.43745e-07, global = -8.41253e-10, cumulative = -4.15133e-06
smoothSolver:  Solving for omega, Initial residual = 0.000554822, Final residual = 1.77024e-05, No Iterations 2
smoothSolver:  Solving for k, Initial residual = 0.00575872, Final residual = 0.00013878, No Iterations 2
ExecutionTime = 12.2169 s  ClockTime = 15 s

forceCoeffs forceCoeffs1 write:
    Cm    = 0
    Cd    = 0
    Cl    = 0
    Cl(f) = 0
    Cl(r) = 0

Time = 62s

smoothSolver:  Solving for Ux, Initial residual = 0.00357279, Final residual = 0.00029882, No Iterations 4
smoothSolver:  Solving for Uy, Initial residual = 0.0325891, Final residual = 0.00210469, No Iterations 3
smoothSolver:  Solving for Uz, Initial residual = 0.004391, Final residual = 0.000408501, No Iterations 4
GAMG:  Solving for p, Initial residual = 0.00856847, Final residual = 8.31272e-05, No Iterations 7
time step continuity errors : sum local = 6.32194e-07, global = 1.69728e-10, cumulative = -4.15116e-06
smoothSolver:  Solving for omega, Initial residual = 0.000539452, Final residual = 1.72255e-05, No Iterations 2
smoothSolver:  Solving for k, Initial residual = 0.00564806, Final residual = 0.000135936, No Iterations 2
ExecutionTime = 12.2512 s  ClockTime = 15 s

forceCoeffs forceCoeffs1 write:
    Cm    = 0
    Cd    = 0
    Cl    = 0
    Cl(f) = 0
    Cl(r) = 0

Time = 63s

smoothSolver:  Solving for Ux, Initial residual = 0.00344686, Final residual = 0.000286725, No Iterations 4
smoothSolver:  Solving for Uy, Initial residual = 0.0316033, Final residual = 0.00207438, No Iterations 3
smoothSolver:  Solving for Uz, Initial residual = 0.00430309, Final residual = 0.000403684, No Iterations 4
GAMG:  Solving for p, Initial residual = 0.00834162, Final residual = 8.16233e-05, No Iterations 7
time step continuity errors : sum local = 6.20791e-07, global = 3.82866e-10, cumulative = -4.15078e-06
smoothSolver:  Solving for omega, Initial residual = 0.000524753, Final residual = 1.67715e-05, No Iterations 2
smoothSolver:  Solving for k, Initial residual = 0.00554233, Final residual = 0.000133162, No Iterations 2
ExecutionTime = 12.2859 s  ClockTime = 15 s

forceCoeffs forceCoeffs1 write:
    Cm    = 0
    Cd    = 0
    Cl    = 0
    Cl(f) = 0
    Cl(r) = 0

Time = 64s

smoothSolver:  Solving for Ux, Initial residual = 0.00332636, Final residual = 0.000276303, No Iterations 4
smoothSolver:  Solving for Uy, Initial residual = 0.03048, Final residual = 0.00201134, No Iterations 3
smoothSolver:  Solving for Uz, Initial residual = 0.00421712, Final residual = 0.000398933, No Iterations 4
GAMG:  Solving for p, Initial residual = 0.0081405, Final residual = 8.02109e-05, No Iterations 7
time step continuity errors : sum local = 6.10015e-07, global = 6.32561e-11, cumulative = -4.15071e-06
smoothSolver:  Solving for omega, Initial residual = 0.000510519, Final residual = 1.63379e-05, No Iterations 2
smoothSolver:  Solving for k, Initial residual = 0.00543909, Final residual = 0.000130423, No Iterations 2
ExecutionTime = 12.3211 s  ClockTime = 15 s

forceCoeffs forceCoeffs1 write:
    Cm    = 0
    Cd    = 0
    Cl    = 0
    Cl(f) = 0
    Cl(r) = 0

Time = 65s

smoothSolver:  Solving for Ux, Initial residual = 0.00322192, Final residual = 0.00026647, No Iterations 4
smoothSolver:  Solving for Uy, Initial residual = 0.0293228, Final residual = 0.00190974, No Iterations 3
smoothSolver:  Solving for Uz, Initial residual = 0.00413238, Final residual = 0.000394269, No Iterations 4
GAMG:  Solving for p, Initial residual = 0.00795366, Final residual = 7.86263e-05, No Iterations 7
time step continuity errors : sum local = 5.97878e-07, global = -2.81179e-10, cumulative = -4.15099e-06
smoothSolver:  Solving for omega, Initial residual = 0.000496825, Final residual = 1.5923e-05, No Iterations 2
smoothSolver:  Solving for k, Initial residual = 0.00533797, Final residual = 0.000127787, No Iterations 2
ExecutionTime = 12.3563 s  ClockTime = 15 s

forceCoeffs forceCoeffs1 write:
    Cm    = 0
    Cd    = 0
    Cl    = 0
    Cl(f) = 0
    Cl(r) = 0

Time = 66s

smoothSolver:  Solving for Ux, Initial residual = 0.00313261, Final residual = 0.000258053, No Iterations 4
smoothSolver:  Solving for Uy, Initial residual = 0.0283086, Final residual = 0.00180613, No Iterations 3
smoothSolver:  Solving for Uz, Initial residual = 0.00404865, Final residual = 0.000389718, No Iterations 4
GAMG:  Solving for p, Initial residual = 0.0077779, Final residual = 7.68544e-05, No Iterations 7
time step continuity errors : sum local = 5.84276e-07, global = -9.28423e-10, cumulative = -4.15192e-06
smoothSolver:  Solving for omega, Initial residual = 0.000483668, Final residual = 1.55278e-05, No Iterations 2
smoothSolver:  Solving for k, Initial residual = 0.00523904, Final residual = 0.000125271, No Iterations 2
ExecutionTime = 12.3908 s  ClockTime = 15 s

forceCoeffs forceCoeffs1 write:
    Cm    = 0
    Cd    = 0
    Cl    = 0
    Cl(f) = 0
    Cl(r) = 0

Time = 67s

smoothSolver:  Solving for Ux, Initial residual = 0.00303874, Final residual = 0.000250231, No Iterations 4
smoothSolver:  Solving for Uy, Initial residual = 0.0274559, Final residual = 0.00169282, No Iterations 3
smoothSolver:  Solving for Uz, Initial residual = 0.00396606, Final residual = 0.000385231, No Iterations 4
GAMG:  Solving for p, Initial residual = 0.00760744, Final residual = 7.50258e-05, No Iterations 7
time step continuity errors : sum local = 5.70208e-07, global = -9.2529e-10, cumulative = -4.15285e-06
smoothSolver:  Solving for omega, Initial residual = 0.000471013, Final residual = 1.51505e-05, No Iterations 2
smoothSolver:  Solving for k, Initial residual = 0.00514398, Final residual = 0.000122793, No Iterations 2
ExecutionTime = 12.4253 s  ClockTime = 15 s

forceCoeffs forceCoeffs1 write:
    Cm    = 0
    Cd    = 0
    Cl    = 0
    Cl(f) = 0
    Cl(r) = 0

Time = 68s

smoothSolver:  Solving for Ux, Initial residual = 0.0029512, Final residual = 0.000243534, No Iterations 4
smoothSolver:  Solving for Uy, Initial residual = 0.0266373, Final residual = 0.00159125, No Iterations 3
smoothSolver:  Solving for Uz, Initial residual = 0.00388581, Final residual = 0.000380762, No Iterations 4
GAMG:  Solving for p, Initial residual = 0.00743862, Final residual = 7.26794e-05, No Iterations 7
time step continuity errors : sum local = 5.52169e-07, global = -1.22034e-09, cumulative = -4.15407e-06
smoothSolver:  Solving for omega, Initial residual = 0.000458819, Final residual = 1.47881e-05, No Iterations 2
smoothSolver:  Solving for k, Initial residual = 0.00505301, Final residual = 0.000120356, No Iterations 2
ExecutionTime = 12.4598 s  ClockTime = 15 s

forceCoeffs forceCoeffs1 write:
    Cm    = 0
    Cd    = 0
    Cl    = 0
    Cl(f) = 0
    Cl(r) = 0

Time = 69s

smoothSolver:  Solving for Ux, Initial residual = 0.00287233, Final residual = 0.000236837, No Iterations 4
smoothSolver:  Solving for Uy, Initial residual = 0.0258105, Final residual = 0.00150969, No Iterations 3
smoothSolver:  Solving for Uz, Initial residual = 0.00380718, Final residual = 0.000376291, No Iterations 4
GAMG:  Solving for p, Initial residual = 0.00726863, Final residual = 6.99533e-05, No Iterations 7
time step continuity errors : sum local = 5.31213e-07, global = -1.26327e-09, cumulative = -4.15533e-06
smoothSolver:  Solving for omega, Initial residual = 0.000447253, Final residual = 1.44373e-05, No Iterations 2
smoothSolver:  Solving for k, Initial residual = 0.00496612, Final residual = 0.000118023, No Iterations 2
ExecutionTime = 12.4939 s  ClockTime = 15 s

forceCoeffs forceCoeffs1 write:
    Cm    = 0
    Cd    = 0
    Cl    = 0
    Cl(f) = 0
    Cl(r) = 0

Time = 70s

smoothSolver:  Solving for Ux, Initial residual = 0.0027955, Final residual = 0.000230775, No Iterations 4
smoothSolver:  Solving for Uy, Initial residual = 0.0250068, Final residual = 0.00145003, No Iterations 3
smoothSolver:  Solving for Uz, Initial residual = 0.00372976, Final residual = 0.000371816, No Iterations 4
GAMG:  Solving for p, Initial residual = 0.0071105, Final residual = 6.73337e-05, No Iterations 7
time step continuity errors : sum local = 5.11046e-07, global = -1.32379e-09, cumulative = -4.15666e-06
smoothSolver:  Solving for omega, Initial residual = 0.000436187, Final residual = 1.40981e-05, No Iterations 2
smoothSolver:  Solving for k, Initial residual = 0.00488174, Final residual = 0.000115754, No Iterations 2
ExecutionTime = 12.5283 s  ClockTime = 15 s

forceCoeffs forceCoeffs1 write:
    Cm    = 0
    Cd    = 0
    Cl    = 0
    Cl(f) = 0
    Cl(r) = 0

Time = 71s

smoothSolver:  Solving for Ux, Initial residual = 0.00272114, Final residual = 0.000224998, No Iterations 4
smoothSolver:  Solving for Uy, Initial residual = 0.0243136, Final residual = 0.00141265, No Iterations 3
smoothSolver:  Solving for Uz, Initial residual = 0.0036532, Final residual = 0.000257489, No Iterations 5
GAMG:  Solving for p, Initial residual = 0.00792238, Final residual = 7.67329e-05, No Iterations 7
time step continuity errors : sum local = 5.8154e-07, global = -1.11e-09, cumulative = -4.15777e-06
smoothSolver:  Solving for omega, Initial residual = 0.000431589, Final residual = 1.40498e-05, No Iterations 2
smoothSolver:  Solving for k, Initial residual = 0.00478501, Final residual = 0.000113198, No Iterations 2
ExecutionTime = 12.5637 s  ClockTime = 15 s

forceCoeffs forceCoeffs1 write:
    Cm    = 0
    Cd    = 0
    Cl    = 0
    Cl(f) = 0
    Cl(r) = 0

Time = 72s

smoothSolver:  Solving for Ux, Initial residual = 0.00304371, Final residual = 0.00022327, No Iterations 4
smoothSolver:  Solving for Uy, Initial residual = 0.0278497, Final residual = 0.00148053, No Iterations 3
smoothSolver:  Solving for Uz, Initial residual = 0.00357696, Final residual = 0.000254106, No Iterations 5
GAMG:  Solving for p, Initial residual = 0.00798476, Final residual = 7.23694e-05, No Iterations 7
time step continuity errors : sum local = 5.46801e-07, global = 7.91144e-11, cumulative = -4.15769e-06
smoothSolver:  Solving for omega, Initial residual = 0.000425491, Final residual = 1.39236e-05, No Iterations 2
smoothSolver:  Solving for k, Initial residual = 0.00469958, Final residual = 0.000110945, No Iterations 2
ExecutionTime = 12.5991 s  ClockTime = 15 s

forceCoeffs forceCoeffs1 write:
    Cm    = 0
    Cd    = 0
    Cl    = 0
    Cl(f) = 0
    Cl(r) = 0

Time = 73s

smoothSolver:  Solving for Ux, Initial residual = 0.00309479, Final residual = 0.000223216, No Iterations 4
smoothSolver:  Solving for Uy, Initial residual = 0.0282547, Final residual = 0.00152424, No Iterations 3
smoothSolver:  Solving for Uz, Initial residual = 0.00350221, Final residual = 0.000250552, No Iterations 5
GAMG:  Solving for p, Initial residual = 0.0078303, Final residual = 7.0201e-05, No Iterations 7
time step continuity errors : sum local = 5.28835e-07, global = 1.35519e-09, cumulative = -4.15633e-06
smoothSolver:  Solving for omega, Initial residual = 0.000418124, Final residual = 1.37278e-05, No Iterations 2
smoothSolver:  Solving for k, Initial residual = 0.00461557, Final residual = 0.000108719, No Iterations 2
ExecutionTime = 12.635 s  ClockTime = 15 s

forceCoeffs forceCoeffs1 write:
    Cm    = 0
    Cd    = 0
    Cl    = 0
    Cl(f) = 0
    Cl(r) = 0

Time = 74s

smoothSolver:  Solving for Ux, Initial residual = 0.00293073, Final residual = 0.000219764, No Iterations 4
smoothSolver:  Solving for Uy, Initial residual = 0.0273813, Final residual = 0.00151054, No Iterations 3
smoothSolver:  Solving for Uz, Initial residual = 0.00342964, Final residual = 0.000247046, No Iterations 5
GAMG:  Solving for p, Initial residual = 0.00762958, Final residual = 6.72684e-05, No Iterations 7
time step continuity errors : sum local = 5.05263e-07, global = 1.70436e-09, cumulative = -4.15463e-06
smoothSolver:  Solving for omega, Initial residual = 0.000409796, Final residual = 1.34826e-05, No Iterations 2
smoothSolver:  Solving for k, Initial residual = 0.00453378, Final residual = 0.00010657, No Iterations 2
ExecutionTime = 12.6717 s  ClockTime = 15 s

forceCoeffs forceCoeffs1 write:
    Cm    = 0
    Cd    = 0
    Cl    = 0
    Cl(f) = 0
    Cl(r) = 0

Time = 75s

smoothSolver:  Solving for Ux, Initial residual = 0.00276522, Final residual = 0.000213602, No Iterations 4
smoothSolver:  Solving for Uy, Initial residual = 0.0267229, Final residual = 0.00147462, No Iterations 3
smoothSolver:  Solving for Uz, Initial residual = 0.00335893, Final residual = 0.000243581, No Iterations 5
GAMG:  Solving for p, Initial residual = 0.00744371, Final residual = 6.56792e-05, No Iterations 7
time step continuity errors : sum local = 4.91939e-07, global = 1.5927e-09, cumulative = -4.15303e-06
smoothSolver:  Solving for omega, Initial residual = 0.000400919, Final residual = 1.32049e-05, No Iterations 2
smoothSolver:  Solving for k, Initial residual = 0.00445413, Final residual = 0.000104506, No Iterations 2
ExecutionTime = 12.7085 s  ClockTime = 15 s

forceCoeffs forceCoeffs1 write:
    Cm    = 0
    Cd    = 0
    Cl    = 0
    Cl(f) = 0
    Cl(r) = 0

Time = 76s

smoothSolver:  Solving for Ux, Initial residual = 0.00265974, Final residual = 0.000206378, No Iterations 4
smoothSolver:  Solving for Uy, Initial residual = 0.0262102, Final residual = 0.00142572, No Iterations 3
smoothSolver:  Solving for Uz, Initial residual = 0.00328918, Final residual = 0.000240115, No Iterations 5
GAMG:  Solving for p, Initial residual = 0.00726894, Final residual = 6.48341e-05, No Iterations 7
time step continuity errors : sum local = 4.84304e-07, global = 1.33978e-09, cumulative = -4.15169e-06
smoothSolver:  Solving for omega, Initial residual = 0.000391768, Final residual = 1.29042e-05, No Iterations 2
smoothSolver:  Solving for k, Initial residual = 0.00437693, Final residual = 0.000102541, No Iterations 2
ExecutionTime = 12.7444 s  ClockTime = 15 s

forceCoeffs forceCoeffs1 write:
    Cm    = 0
    Cd    = 0
    Cl    = 0
    Cl(f) = 0
    Cl(r) = 0

Time = 77s

smoothSolver:  Solving for Ux, Initial residual = 0.00257029, Final residual = 0.000198682, No Iterations 4
smoothSolver:  Solving for Uy, Initial residual = 0.025617, Final residual = 0.00136843, No Iterations 3
smoothSolver:  Solving for Uz, Initial residual = 0.00321927, Final residual = 0.000236636, No Iterations 5
GAMG:  Solving for p, Initial residual = 0.0070931, Final residual = 6.38888e-05, No Iterations 7
time step continuity errors : sum local = 4.76023e-07, global = 1.40433e-09, cumulative = -4.15029e-06
smoothSolver:  Solving for omega, Initial residual = 0.000382543, Final residual = 1.25926e-05, No Iterations 2
smoothSolver:  Solving for k, Initial residual = 0.00430317, Final residual = 0.000100658, No Iterations 2
ExecutionTime = 12.7793 s  ClockTime = 15 s

forceCoeffs forceCoeffs1 write:
    Cm    = 0
    Cd    = 0
    Cl    = 0
    Cl(f) = 0
    Cl(r) = 0

Time = 78s

smoothSolver:  Solving for Ux, Initial residual = 0.00248592, Final residual = 0.000191369, No Iterations 4
smoothSolver:  Solving for Uy, Initial residual = 0.0248491, Final residual = 0.00132105, No Iterations 3
smoothSolver:  Solving for Uz, Initial residual = 0.00314883, Final residual = 0.000233156, No Iterations 5
GAMG:  Solving for p, Initial residual = 0.00692487, Final residual = 6.26409e-05, No Iterations 7
time step continuity errors : sum local = 4.65587e-07, global = 1.18562e-09, cumulative = -4.1491e-06
smoothSolver:  Solving for omega, Initial residual = 0.00037332, Final residual = 1.22763e-05, No Iterations 2
smoothSolver:  Solving for k, Initial residual = 0.00423263, Final residual = 9.8852e-05, No Iterations 2
ExecutionTime = 12.8149 s  ClockTime = 15 s

forceCoeffs forceCoeffs1 write:
    Cm    = 0
[...]
smoothSolver:  Solving for Uz, Initial residual = 2.85076e-08, Final residual = 9.38372e-09, No Iterations 2
GAMG:  Solving for p, Initial residual = 8.71263e-08, Final residual = 8.71263e-08, No Iterations 0
time step continuity errors : sum local = 6.00735e-10, global = 3.30023e-12, cumulative = -4.52614e-06
smoothSolver:  Solving for omega, Initial residual = 9.93903e-09, Final residual = 9.93903e-09, No Iterations 0
smoothSolver:  Solving for k, Initial residual = 1.23672e-07, Final residual = 2.61926e-09, No Iterations 2
ExecutionTime = 77.1521 s  ClockTime = 80 s

forceCoeffs forceCoeffs1 write:
    Cm    = 0
    Cd    = 0
    Cl    = 0
    Cl(f) = 0
    Cl(r) = 0

Time = 1980s

smoothSolver:  Solving for Ux, Initial residual = 3.85372e-08, Final residual = 8.22355e-09, No Iterations 3
smoothSolver:  Solving for Uy, Initial residual = 9.21591e-08, Final residual = 9.57701e-09, No Iterations 4
smoothSolver:  Solving for Uz, Initial residual = 2.82156e-08, Final residual = 9.29576e-09, No Iterations 2
GAMG:  Solving for p, Initial residual = 9.88988e-08, Final residual = 9.88988e-08, No Iterations 0
time step continuity errors : sum local = 6.81906e-10, global = 5.43286e-12, cumulative = -4.52613e-06
smoothSolver:  Solving for omega, Initial residual = 1.00129e-08, Final residual = 1.58528e-09, No Iterations 1
smoothSolver:  Solving for k, Initial residual = 1.24548e-07, Final residual = 2.59826e-09, No Iterations 2
ExecutionTime = 77.1785 s  ClockTime = 80 s

forceCoeffs forceCoeffs1 write:
    Cm    = 0
    Cd    = 0
    Cl    = 0
    Cl(f) = 0
    Cl(r) = 0

Time = 1981s

smoothSolver:  Solving for Ux, Initial residual = 3.94763e-08, Final residual = 8.79767e-09, No Iterations 3
smoothSolver:  Solving for Uy, Initial residual = 7.47236e-08, Final residual = 9.2634e-09, No Iterations 4
smoothSolver:  Solving for Uz, Initial residual = 2.94039e-08, Final residual = 9.6932e-09, No Iterations 2
GAMG:  Solving for p, Initial residual = 1.01666e-07, Final residual = 2.64258e-08, No Iterations 1
time step continuity errors : sum local = 1.82206e-10, global = -2.03186e-12, cumulative = -4.52613e-06
smoothSolver:  Solving for omega, Initial residual = 9.25909e-09, Final residual = 9.25909e-09, No Iterations 0
smoothSolver:  Solving for k, Initial residual = 1.25046e-07, Final residual = 2.60152e-09, No Iterations 2
ExecutionTime = 77.2065 s  ClockTime = 80 s

forceCoeffs forceCoeffs1 write:
    Cm    = 0
    Cd    = 0
    Cl    = 0
    Cl(f) = 0
    Cl(r) = 0

Time = 1982s

smoothSolver:  Solving for Ux, Initial residual = 4.77332e-08, Final residual = 8.70671e-09, No Iterations 3
smoothSolver:  Solving for Uy, Initial residual = 1.76677e-07, Final residual = 1.61028e-08, No Iterations 3
smoothSolver:  Solving for Uz, Initial residual = 2.91008e-08, Final residual = 9.60209e-09, No Iterations 2
GAMG:  Solving for p, Initial residual = 8.70879e-08, Final residual = 8.70879e-08, No Iterations 0
time step continuity errors : sum local = 6.00469e-10, global = 1.06764e-11, cumulative = -4.52612e-06
smoothSolver:  Solving for omega, Initial residual = 9.36831e-09, Final residual = 9.36831e-09, No Iterations 0
smoothSolver:  Solving for k, Initial residual = 1.23819e-07, Final residual = 2.5847e-09, No Iterations 2
ExecutionTime = 77.233 s  ClockTime = 80 s

forceCoeffs forceCoeffs1 write:
    Cm    = 0
    Cd    = 0
    Cl    = 0
    Cl(f) = 0
    Cl(r) = 0

Time = 1983s

smoothSolver:  Solving for Ux, Initial residual = 3.99417e-08, Final residual = 8.48174e-09, No Iterations 3
smoothSolver:  Solving for Uy, Initial residual = 9.29648e-08, Final residual = 9.37427e-09, No Iterations 4
smoothSolver:  Solving for Uz, Initial residual = 2.87955e-08, Final residual = 9.50471e-09, No Iterations 2
GAMG:  Solving for p, Initial residual = 9.80961e-08, Final residual = 9.80961e-08, No Iterations 0
time step continuity errors : sum local = 6.76371e-10, global = 1.6165e-11, cumulative = -4.52611e-06
smoothSolver:  Solving for omega, Initial residual = 9.47039e-09, Final residual = 9.47039e-09, No Iterations 0
smoothSolver:  Solving for k, Initial residual = 1.22607e-07, Final residual = 2.5669e-09, No Iterations 2
ExecutionTime = 77.2594 s  ClockTime = 80 s

forceCoeffs forceCoeffs1 write:
    Cm    = 0
    Cd    = 0
    Cl    = 0
    Cl(f) = 0
    Cl(r) = 0

Time = 1984s

smoothSolver:  Solving for Ux, Initial residual = 3.75517e-08, Final residual = 8.36567e-09, No Iterations 3
smoothSolver:  Solving for Uy, Initial residual = 7.24939e-08, Final residual = 9.15519e-09, No Iterations 4
smoothSolver:  Solving for Uz, Initial residual = 2.85278e-08, Final residual = 9.42022e-09, No Iterations 2
GAMG:  Solving for p, Initial residual = 1.01839e-07, Final residual = 2.67119e-08, No Iterations 1
time step continuity errors : sum local = 1.84178e-10, global = -2.93989e-13, cumulative = -4.52611e-06
smoothSolver:  Solving for omega, Initial residual = 9.56258e-09, Final residual = 9.56258e-09, No Iterations 0
smoothSolver:  Solving for k, Initial residual = 1.21393e-07, Final residual = 2.5477e-09, No Iterations 2
ExecutionTime = 77.2874 s  ClockTime = 80 s

forceCoeffs forceCoeffs1 write:
    Cm    = 0
    Cd    = 0
    Cl    = 0
    Cl(f) = 0
    Cl(r) = 0

Time = 1985s

smoothSolver:  Solving for Ux, Initial residual = 4.60629e-08, Final residual = 8.2979e-09, No Iterations 3
smoothSolver:  Solving for Uy, Initial residual = 1.72855e-07, Final residual = 1.61151e-08, No Iterations 3
smoothSolver:  Solving for Uz, Initial residual = 2.83063e-08, Final residual = 9.34171e-09, No Iterations 2
GAMG:  Solving for p, Initial residual = 8.70014e-08, Final residual = 8.70014e-08, No Iterations 0
time step continuity errors : sum local = 5.99873e-10, global = 6.9194e-12, cumulative = -4.5261e-06
smoothSolver:  Solving for omega, Initial residual = 9.65021e-09, Final residual = 9.65021e-09, No Iterations 0
smoothSolver:  Solving for k, Initial residual = 1.20162e-07, Final residual = 2.52706e-09, No Iterations 2
ExecutionTime = 77.3132 s  ClockTime = 80 s

forceCoeffs forceCoeffs1 write:
    Cm    = 0
    Cd    = 0
    Cl    = 0
    Cl(f) = 0
    Cl(r) = 0

Time = 1986s

smoothSolver:  Solving for Ux, Initial residual = 3.82102e-08, Final residual = 8.0941e-09, No Iterations 3
smoothSolver:  Solving for Uy, Initial residual = 9.30767e-08, Final residual = 9.35569e-09, No Iterations 4
smoothSolver:  Solving for Uz, Initial residual = 2.80141e-08, Final residual = 9.25156e-09, No Iterations 2
GAMG:  Solving for p, Initial residual = 9.85228e-08, Final residual = 9.85228e-08, No Iterations 0
time step continuity errors : sum local = 6.79313e-10, global = 7.21105e-12, cumulative = -4.52609e-06
smoothSolver:  Solving for omega, Initial residual = 9.73331e-09, Final residual = 9.73331e-09, No Iterations 0
smoothSolver:  Solving for k, Initial residual = 1.1894e-07, Final residual = 2.50645e-09, No Iterations 2
ExecutionTime = 77.3406 s  ClockTime = 80 s

forceCoeffs forceCoeffs1 write:
    Cm    = 0
    Cd    = 0
    Cl    = 0
    Cl(f) = 0
    Cl(r) = 0

Time = 1987s

smoothSolver:  Solving for Ux, Initial residual = 3.58533e-08, Final residual = 7.99749e-09, No Iterations 3
smoothSolver:  Solving for Uy, Initial residual = 7.31258e-08, Final residual = 9.12562e-09, No Iterations 4
smoothSolver:  Solving for Uz, Initial residual = 2.77504e-08, Final residual = 9.1698e-09, No Iterations 2
GAMG:  Solving for p, Initial residual = 1.02715e-07, Final residual = 2.64303e-08, No Iterations 1
time step continuity errors : sum local = 1.82236e-10, global = -2.34603e-12, cumulative = -4.5261e-06
smoothSolver:  Solving for omega, Initial residual = 9.80861e-09, Final residual = 9.80861e-09, No Iterations 0
smoothSolver:  Solving for k, Initial residual = 1.17718e-07, Final residual = 2.48503e-09, No Iterations 2
ExecutionTime = 77.367 s  ClockTime = 80 s

forceCoeffs forceCoeffs1 write:
    Cm    = 0
    Cd    = 0
    Cl    = 0
    Cl(f) = 0
    Cl(r) = 0

Time = 1988s

smoothSolver:  Solving for Ux, Initial residual = 4.52683e-08, Final residual = 8.0308e-09, No Iterations 3
smoothSolver:  Solving for Uy, Initial residual = 1.71501e-07, Final residual = 1.52729e-08, No Iterations 3
smoothSolver:  Solving for Uz, Initial residual = 2.75356e-08, Final residual = 9.09548e-09, No Iterations 2
GAMG:  Solving for p, Initial residual = 8.84597e-08, Final residual = 8.84597e-08, No Iterations 0
time step continuity errors : sum local = 6.09928e-10, global = 2.94705e-12, cumulative = -4.52609e-06
smoothSolver:  Solving for omega, Initial residual = 9.88362e-09, Final residual = 9.88362e-09, No Iterations 0
smoothSolver:  Solving for k, Initial residual = 1.16483e-07, Final residual = 2.46269e-09, No Iterations 2
ExecutionTime = 77.392 s  ClockTime = 80 s

forceCoeffs forceCoeffs1 write:
    Cm    = 0
    Cd    = 0
    Cl    = 0
    Cl(f) = 0
    Cl(r) = 0

Time = 1989s

smoothSolver:  Solving for Ux, Initial residual = 3.69208e-08, Final residual = 7.80951e-09, No Iterations 3
smoothSolver:  Solving for Uy, Initial residual = 9.15331e-08, Final residual = 8.96982e-09, No Iterations 4
smoothSolver:  Solving for Uz, Initial residual = 2.72445e-08, Final residual = 9.00673e-09, No Iterations 2
GAMG:  Solving for p, Initial residual = 1.00858e-07, Final residual = 2.57626e-08, No Iterations 1
time step continuity errors : sum local = 1.77633e-10, global = -4.04561e-12, cumulative = -4.5261e-06
smoothSolver:  Solving for omega, Initial residual = 9.95462e-09, Final residual = 9.95462e-09, No Iterations 0
smoothSolver:  Solving for k, Initial residual = 1.15264e-07, Final residual = 2.44083e-09, No Iterations 2
ExecutionTime = 77.4179 s  ClockTime = 80 s

forceCoeffs forceCoeffs1 write:
    Cm    = 0
    Cd    = 0
    Cl    = 0
    Cl(f) = 0
    Cl(r) = 0

Time = 1990s

smoothSolver:  Solving for Ux, Initial residual = 4.39038e-08, Final residual = 7.85349e-09, No Iterations 3
smoothSolver:  Solving for Uy, Initial residual = 1.63359e-07, Final residual = 1.47438e-08, No Iterations 3
smoothSolver:  Solving for Uz, Initial residual = 2.70181e-08, Final residual = 8.93127e-09, No Iterations 2
GAMG:  Solving for p, Initial residual = 8.70407e-08, Final residual = 8.70407e-08, No Iterations 0
time step continuity errors : sum local = 6.00144e-10, global = 7.61817e-13, cumulative = -4.5261e-06
smoothSolver:  Solving for omega, Initial residual = 1.00257e-08, Final residual = 1.58723e-09, No Iterations 1
smoothSolver:  Solving for k, Initial residual = 1.16194e-07, Final residual = 2.42027e-09, No Iterations 2
ExecutionTime = 77.4426 s  ClockTime = 80 s

forceCoeffs forceCoeffs1 write:
    Cm    = 0
    Cd    = 0
    Cl    = 0
    Cl(f) = 0
    Cl(r) = 0

Time = 1991s

smoothSolver:  Solving for Ux, Initial residual = 3.90045e-08, Final residual = 8.28747e-09, No Iterations 3
smoothSolver:  Solving for Uy, Initial residual = 9.03907e-08, Final residual = 8.82805e-09, No Iterations 4
smoothSolver:  Solving for Uz, Initial residual = 2.81845e-08, Final residual = 9.31696e-09, No Iterations 2
GAMG:  Solving for p, Initial residual = 9.69285e-08, Final residual = 9.69285e-08, No Iterations 0
time step continuity errors : sum local = 6.6832e-10, global = 1.0504e-11, cumulative = -4.52609e-06
smoothSolver:  Solving for omega, Initial residual = 9.26869e-09, Final residual = 9.26869e-09, No Iterations 0
smoothSolver:  Solving for k, Initial residual = 1.16753e-07, Final residual = 2.42496e-09, No Iterations 2
ExecutionTime = 77.4675 s  ClockTime = 80 s

forceCoeffs forceCoeffs1 write:
    Cm    = 0
    Cd    = 0
    Cl    = 0
    Cl(f) = 0
    Cl(r) = 0

Time = 1992s

smoothSolver:  Solving for Ux, Initial residual = 3.65394e-08, Final residual = 8.14541e-09, No Iterations 3
smoothSolver:  Solving for Uy, Initial residual = 6.97472e-08, Final residual = 8.70742e-09, No Iterations 4
smoothSolver:  Solving for Uz, Initial residual = 2.78323e-08, Final residual = 9.22161e-09, No Iterations 2
GAMG:  Solving for p, Initial residual = 1.01477e-07, Final residual = 2.71229e-08, No Iterations 1
time step continuity errors : sum local = 1.87012e-10, global = -2.87545e-12, cumulative = -4.52609e-06
smoothSolver:  Solving for omega, Initial residual = 9.37536e-09, Final residual = 9.37536e-09, No Iterations 0
smoothSolver:  Solving for k, Initial residual = 1.15605e-07, Final residual = 2.40992e-09, No Iterations 2
ExecutionTime = 77.4949 s  ClockTime = 80 s

forceCoeffs forceCoeffs1 write:
    Cm    = 0
    Cd    = 0
    Cl    = 0
    Cl(f) = 0
    Cl(r) = 0

Time = 1993s

smoothSolver:  Solving for Ux, Initial residual = 4.56276e-08, Final residual = 8.07665e-09, No Iterations 3
smoothSolver:  Solving for Uy, Initial residual = 1.63106e-07, Final residual = 1.47632e-08, No Iterations 3
smoothSolver:  Solving for Uz, Initial residual = 2.76019e-08, Final residual = 9.13638e-09, No Iterations 2
GAMG:  Solving for p, Initial residual = 8.56892e-08, Final residual = 8.56892e-08, No Iterations 0
time step continuity errors : sum local = 5.90825e-10, global = 6.93958e-12, cumulative = -4.52608e-06
smoothSolver:  Solving for omega, Initial residual = 9.47639e-09, Final residual = 9.47639e-09, No Iterations 0
smoothSolver:  Solving for k, Initial residual = 1.14451e-07, Final residual = 2.39299e-09, No Iterations 2
ExecutionTime = 77.521 s  ClockTime = 80 s

forceCoeffs forceCoeffs1 write:
    Cm    = 0
    Cd    = 0
    Cl    = 0
    Cl(f) = 0
    Cl(r) = 0

Time = 1994s

smoothSolver:  Solving for Ux, Initial residual = 3.72283e-08, Final residual = 7.84763e-09, No Iterations 3
smoothSolver:  Solving for Uy, Initial residual = 8.70965e-08, Final residual = 8.56305e-09, No Iterations 4
smoothSolver:  Solving for Uz, Initial residual = 2.73091e-08, Final residual = 9.04403e-09, No Iterations 2
GAMG:  Solving for p, Initial residual = 9.69459e-08, Final residual = 9.69459e-08, No Iterations 0
time step continuity errors : sum local = 6.6844e-10, global = 9.58569e-12, cumulative = -4.52607e-06
smoothSolver:  Solving for omega, Initial residual = 9.56999e-09, Final residual = 9.56999e-09, No Iterations 0
smoothSolver:  Solving for k, Initial residual = 1.13303e-07, Final residual = 2.37538e-09, No Iterations 2
ExecutionTime = 77.5474 s  ClockTime = 80 s

forceCoeffs forceCoeffs1 write:
    Cm    = 0
    Cd    = 0
    Cl    = 0
    Cl(f) = 0
    Cl(r) = 0

Time = 1995s

smoothSolver:  Solving for Ux, Initial residual = 3.48457e-08, Final residual = 7.73434e-09, No Iterations 3
smoothSolver:  Solving for Uy, Initial residual = 6.87916e-08, Final residual = 8.56833e-09, No Iterations 4
smoothSolver:  Solving for Uz, Initial residual = 2.70479e-08, Final residual = 8.96147e-09, No Iterations 2
GAMG:  Solving for p, Initial residual = 1.0013e-07, Final residual = 2.62442e-08, No Iterations 1
time step continuity errors : sum local = 1.80953e-10, global = -3.29553e-12, cumulative = -4.52608e-06
smoothSolver:  Solving for omega, Initial residual = 9.65371e-09, Final residual = 9.65371e-09, No Iterations 0
smoothSolver:  Solving for k, Initial residual = 1.12153e-07, Final residual = 2.35663e-09, No Iterations 2
ExecutionTime = 77.575 s  ClockTime = 80 s

forceCoeffs forceCoeffs1 write:
    Cm    = 0
    Cd    = 0
    Cl    = 0
    Cl(f) = 0
    Cl(r) = 0

Time = 1996s

smoothSolver:  Solving for Ux, Initial residual = 4.46796e-08, Final residual = 7.7322e-09, No Iterations 3
smoothSolver:  Solving for Uy, Initial residual = 1.64591e-07, Final residual = 1.48277e-08, No Iterations 3
smoothSolver:  Solving for Uz, Initial residual = 2.68387e-08, Final residual = 8.88758e-09, No Iterations 2
GAMG:  Solving for p, Initial residual = 8.64148e-08, Final residual = 8.64148e-08, No Iterations 0
time step continuity errors : sum local = 5.95828e-10, global = 2.04437e-12, cumulative = -4.52607e-06
smoothSolver:  Solving for omega, Initial residual = 9.73407e-09, Final residual = 9.73407e-09, No Iterations 0
smoothSolver:  Solving for k, Initial residual = 1.10986e-07, Final residual = 2.33673e-09, No Iterations 2
ExecutionTime = 77.6012 s  ClockTime = 80 s

forceCoeffs forceCoeffs1 write:
    Cm    = 0
    Cd    = 0
    Cl    = 0
    Cl(f) = 0
    Cl(r) = 0

Time = 1997s

smoothSolver:  Solving for Ux, Initial residual = 3.5861e-08, Final residual = 7.5206e-09, No Iterations 3
smoothSolver:  Solving for Uy, Initial residual = 8.74652e-08, Final residual = 8.42994e-09, No Iterations 4
smoothSolver:  Solving for Uz, Initial residual = 2.65504e-08, Final residual = 8.79934e-09, No Iterations 2
GAMG:  Solving for p, Initial residual = 9.83516e-08, Final residual = 9.83516e-08, No Iterations 0
time step continuity errors : sum local = 6.78133e-10, global = 2.03308e-12, cumulative = -4.52607e-06
smoothSolver:  Solving for omega, Initial residual = 9.81135e-09, Final residual = 9.81135e-09, No Iterations 0
smoothSolver:  Solving for k, Initial residual = 1.09829e-07, Final residual = 2.31699e-09, No Iterations 2
ExecutionTime = 77.6276 s  ClockTime = 80 s

forceCoeffs forceCoeffs1 write:
    Cm    = 0
    Cd    = 0
    Cl    = 0
    Cl(f) = 0
    Cl(r) = 0

Time = 1998s

smoothSolver:  Solving for Ux, Initial residual = 3.33337e-08, Final residual = 7.41287e-09, No Iterations 3
smoothSolver:  Solving for Uy, Initial residual = 6.83632e-08, Final residual = 8.42468e-09, No Iterations 4
smoothSolver:  Solving for Uz, Initial residual = 2.62918e-08, Final residual = 8.71933e-09, No Iterations 2
GAMG:  Solving for p, Initial residual = 1.02278e-07, Final residual = 2.61803e-08, No Iterations 1
time step continuity errors : sum local = 1.80513e-10, global = -7.165e-12, cumulative = -4.52608e-06
smoothSolver:  Solving for omega, Initial residual = 9.88194e-09, Final residual = 9.88194e-09, No Iterations 0
smoothSolver:  Solving for k, Initial residual = 1.08673e-07, Final residual = 2.29661e-09, No Iterations 2
ExecutionTime = 77.6551 s  ClockTime = 80 s

forceCoeffs forceCoeffs1 write:
    Cm    = 0
    Cd    = 0
    Cl    = 0
    Cl(f) = 0
    Cl(r) = 0

Time = 1999s

smoothSolver:  Solving for Ux, Initial residual = 4.40437e-08, Final residual = 7.48437e-09, No Iterations 3
smoothSolver:  Solving for Uy, Initial residual = 1.66675e-07, Final residual = 1.42955e-08, No Iterations 3
smoothSolver:  Solving for Uz, Initial residual = 2.60857e-08, Final residual = 8.64707e-09, No Iterations 2
GAMG:  Solving for p, Initial residual = 8.80345e-08, Final residual = 8.80345e-08, No Iterations 0
time step continuity errors : sum local = 6.06996e-10, global = -3.12412e-12, cumulative = -4.52608e-06
smoothSolver:  Solving for omega, Initial residual = 9.9529e-09, Final residual = 9.9529e-09, No Iterations 0
smoothSolver:  Solving for k, Initial residual = 1.07507e-07, Final residual = 2.27552e-09, No Iterations 2
ExecutionTime = 77.6814 s  ClockTime = 80 s

forceCoeffs forceCoeffs1 write:
    Cm    = 0
    Cd    = 0
    Cl    = 0
    Cl(f) = 0
    Cl(r) = 0

Time = 2000s

smoothSolver:  Solving for Ux, Initial residual = 3.49015e-08, Final residual = 7.26976e-09, No Iterations 3
smoothSolver:  Solving for Uy, Initial residual = 8.57889e-08, Final residual = 8.00762e-09, No Iterations 4
smoothSolver:  Solving for Uz, Initial residual = 2.57985e-08, Final residual = 8.55944e-09, No Iterations 2
GAMG:  Solving for p, Initial residual = 1.0062e-07, Final residual = 2.55672e-08, No Iterations 1
time step continuity errors : sum local = 1.76285e-10, global = -1.00576e-11, cumulative = -4.52609e-06
smoothSolver:  Solving for omega, Initial residual = 1.00207e-08, Final residual = 1.58575e-09, No Iterations 1
smoothSolver:  Solving for k, Initial residual = 1.08514e-07, Final residual = 2.25698e-09, No Iterations 2
ExecutionTime = 77.7736 s  ClockTime = 80 s

streamlines streamlines write:
    Seeded 20 particles
    Sampled 146155 locations
forceCoeffs forceCoeffs1 write:
    Cm    = 0
    Cd    = 0
    Cl    = 0
    Cl(f) = 0
    Cl(r) = 0

End

Finalising parallel run
